<?xml version="1.0" encoding="UTF-8"?>

<!-- generated on 2023-07-01 23:24:47.858699 by randomTrips.py v1_18_0+0023-ef591d47046
<configuration>
    <duarouter-routing-threads value="4"/>
    <end value="1000.0"/>
    <fringe-start-attributes value="departSpeed=&quot;max&quot;"/>
    <max-distance value="10000.0"/>
    <min-distance value="4000.0"/>
    <net-file value="pasto.net.xml.gz"/>
    <period value="1.0"/>
    <random value="True"/>
    <remove-loops value="True"/>
    <route-file value="pasto.bus.rou.xml"/>
    <trip-attributes value="departLane=&quot;best&quot;"/>
    <output-trip-file value="pasto.bus.trips.xml"/>
    <prefix value="bus"/>
    <validate value="True"/>
    <vclass value="bus"/>
    <vehicle-class value="bus"/>
    <via-edge-types value="highway.motorway,highway.motorway_link,highway.trunk_link,highway.primary_link,highway.secondary_link,highway.tertiary_link"/>
</configuration>
-->

<!-- generated on 2023-07-01 23:24:40 by Eclipse SUMO duarouter Version v1_18_0+0023-ef591d47046
<configuration xmlns:xsi="http://www.w3.org/2001/XMLSchema-instance" xsi:noNamespaceSchemaLocation="http://sumo.dlr.de/xsd/duarouterConfiguration.xsd">

    <input>
        <net-file value="pasto.net.xml.gz"/>
        <route-files value="pasto.bus.trips.xml"/>
    </input>

    <output>
        <output-file value="pasto.bus.trips.xml.tmp"/>
        <alternatives-output value="NUL"/>
        <write-trips value="true"/>
    </output>

    <processing>
        <remove-loops value="true"/>
        <routing-threads value="4"/>
    </processing>

    <time>
        <begin value="0.0"/>
        <end value="1000.0"/>
    </time>

    <report>
        <no-warnings value="true"/>
        <ignore-errors value="true"/>
        <no-step-log value="true"/>
    </report>

</configuration>
-->

<routes xmlns:xsi="http://www.w3.org/2001/XMLSchema-instance" xsi:noNamespaceSchemaLocation="http://sumo.dlr.de/xsd/routes_file.xsd">
    <vType id="bus_bus" vClass="bus"/>
    <trip id="bus0" type="bus_bus" depart="0.00" departLane="best" from="1175566388" to="1175568145"/>
    <trip id="bus1" type="bus_bus" depart="1.00" departLane="best" from="1175562965" to="1175567696"/>
    <trip id="bus2" type="bus_bus" depart="2.00" departLane="best" from="-571392858" to="1175566248"/>
    <trip id="bus3" type="bus_bus" depart="3.00" departLane="best" from="1175577142" to="1175572797"/>
    <trip id="bus4" type="bus_bus" depart="4.00" departLane="best" from="1175576183" to="1175571162"/>
    <trip id="bus5" type="bus_bus" depart="5.00" departLane="best" from="1175565042" to="1175569757"/>
    <trip id="bus6" type="bus_bus" depart="6.00" departLane="best" from="1175564123" to="1175569697"/>
    <trip id="bus7" type="bus_bus" depart="7.00" departLane="best" from="1175565689" to="572102401"/>
    <trip id="bus8" type="bus_bus" depart="8.00" departLane="best" from="1175570727" to="1175575961"/>
    <trip id="bus9" type="bus_bus" depart="9.00" departLane="best" from="1175563906" to="1175563520"/>
    <trip id="bus10" type="bus_bus" depart="10.00" departLane="best" from="1175567616" to="1175574519"/>
    <trip id="bus11" type="bus_bus" depart="11.00" departLane="best" departSpeed="max" from="-571299726" to="1175571698"/>
    <trip id="bus12" type="bus_bus" depart="12.00" departLane="best" from="1175567789" to="-1001703628"/>
    <trip id="bus13" type="bus_bus" depart="13.00" departLane="best" from="1175568187" to="1175565595"/>
    <trip id="bus14" type="bus_bus" depart="14.00" departLane="best" from="1175563374" to="1175569240"/>
    <trip id="bus15" type="bus_bus" depart="15.00" departLane="best" from="1175572251" to="1175567964"/>
    <trip id="bus16" type="bus_bus" depart="16.00" departLane="best" from="1175568856" to="1175575762"/>
    <trip id="bus17" type="bus_bus" depart="17.00" departLane="best" from="1175569117" to="1175569605"/>
    <trip id="bus18" type="bus_bus" depart="18.00" departLane="best" from="1175571344" to="1175564125"/>
    <trip id="bus19" type="bus_bus" depart="19.00" departLane="best" from="-824623876" to="1175563593"/>
    <trip id="bus20" type="bus_bus" depart="20.00" departLane="best" from="1175568151" to="79537352"/>
    <trip id="bus21" type="bus_bus" depart="21.00" departLane="best" from="1175564709" to="79537014"/>
    <trip id="bus22" type="bus_bus" depart="22.00" departLane="best" from="1175565267" to="-824898032"/>
    <trip id="bus23" type="bus_bus" depart="23.00" departLane="best" from="1175566428" to="1175568028"/>
    <trip id="bus24" type="bus_bus" depart="24.00" departLane="best" from="1175564527" to="1175563608"/>
    <trip id="bus25" type="bus_bus" depart="25.00" departLane="best" from="1175573623" to="1175565365"/>
    <trip id="bus26" type="bus_bus" depart="26.00" departLane="best" departSpeed="max" from="-571372352" to="1175571498"/>
    <trip id="bus27" type="bus_bus" depart="27.00" departLane="best" from="1175569018" to="1175576266"/>
    <trip id="bus28" type="bus_bus" depart="28.00" departLane="best" departSpeed="max" from="824899550" to="1175576847"/>
    <trip id="bus29" type="bus_bus" depart="29.00" departLane="best" from="1175563367" to="1175563107"/>
    <trip id="bus30" type="bus_bus" depart="30.00" departLane="best" from="1175566346" to="1175568231"/>
    <trip id="bus31" type="bus_bus" depart="31.00" departLane="best" from="1175573297" to="-824899550"/>
    <trip id="bus32" type="bus_bus" depart="32.00" departLane="best" from="1175576175" to="1175566039"/>
    <trip id="bus33" type="bus_bus" depart="33.00" departLane="best" from="-79536794" to="1175570594"/>
    <trip id="bus34" type="bus_bus" depart="34.00" departLane="best" from="1175567142" to="-824662356"/>
    <trip id="bus35" type="bus_bus" depart="35.00" departLane="best" from="1175571651" to="-79711782"/>
    <trip id="bus36" type="bus_bus" depart="36.00" departLane="best" from="1175565095" to="1175572551"/>
    <trip id="bus37" type="bus_bus" depart="37.00" departLane="best" from="1175564217" to="1175576265"/>
    <trip id="bus38" type="bus_bus" depart="38.00" departLane="best" from="1175564750" to="1175575876"/>
    <trip id="bus39" type="bus_bus" depart="39.00" departLane="best" from="1175571283" to="1175576426"/>
    <trip id="bus40" type="bus_bus" depart="40.00" departLane="best" from="1175574774" to="1175573162"/>
    <trip id="bus41" type="bus_bus" depart="41.00" departLane="best" from="1175567767" to="1175571661"/>
    <trip id="bus42" type="bus_bus" depart="42.00" departLane="best" departSpeed="max" from="-824665861" to="1175567348"/>
    <trip id="bus43" type="bus_bus" depart="43.00" departLane="best" from="1175563173" to="1175564682"/>
    <trip id="bus44" type="bus_bus" depart="44.00" departLane="best" from="1175571767" to="1175575967"/>
    <trip id="bus45" type="bus_bus" depart="45.00" departLane="best" from="-79092095" to="1175567919"/>
    <trip id="bus46" type="bus_bus" depart="46.00" departLane="best" from="1175564122" to="-821913471"/>
    <trip id="bus47" type="bus_bus" depart="47.00" departLane="best" departSpeed="max" from="-572016093" to="1175566050"/>
    <trip id="bus48" type="bus_bus" depart="48.00" departLane="best" from="1175573866" to="1175575461"/>
    <trip id="bus49" type="bus_bus" depart="49.00" departLane="best" from="1175564862" to="1175565467"/>
    <trip id="bus50" type="bus_bus" depart="50.00" departLane="best" from="1175571776" to="1175574570"/>
    <trip id="bus51" type="bus_bus" depart="51.00" departLane="best" from="-78046828" to="1040427901"/>
    <trip id="bus52" type="bus_bus" depart="52.00" departLane="best" from="1175575928" to="1175564086"/>
    <trip id="bus53" type="bus_bus" depart="53.00" departLane="best" from="1175576186" to="-571302565"/>
    <trip id="bus54" type="bus_bus" depart="54.00" departLane="best" from="572014841" to="1175566997"/>
    <trip id="bus55" type="bus_bus" depart="55.00" departLane="best" from="1175571797" to="-824899552"/>
    <trip id="bus56" type="bus_bus" depart="56.00" departLane="best" from="1175570896" to="1175574645"/>
    <trip id="bus57" type="bus_bus" depart="57.00" departLane="best" from="1175566347" to="1175571243"/>
    <trip id="bus58" type="bus_bus" depart="58.00" departLane="best" from="1175567639" to="1175575948"/>
    <trip id="bus59" type="bus_bus" depart="59.00" departLane="best" from="1175564791" to="-98354382"/>
    <trip id="bus60" type="bus_bus" depart="60.00" departLane="best" from="1175572705" to="1175575420"/>
    <trip id="bus61" type="bus_bus" depart="61.00" departLane="best" from="1175564907" to="1175576708"/>
    <trip id="bus62" type="bus_bus" depart="62.00" departLane="best" from="1175576515" to="1175568669"/>
    <trip id="bus63" type="bus_bus" depart="63.00" departLane="best" from="1175568099" to="1175563631"/>
    <trip id="bus64" type="bus_bus" depart="64.00" departLane="best" from="1175570176" to="1175568179"/>
    <trip id="bus65" type="bus_bus" depart="65.00" departLane="best" from="1175563185" to="1175572520"/>
    <trip id="bus66" type="bus_bus" depart="66.00" departLane="best" from="1175565330" to="-873061630"/>
    <trip id="bus67" type="bus_bus" depart="67.00" departLane="best" from="1175576011" to="1175568939"/>
    <trip id="bus68" type="bus_bus" depart="68.00" departLane="best" from="1175563153" to="1003963322"/>
    <trip id="bus69" type="bus_bus" depart="69.00" departLane="best" from="1175576234" to="1175575412"/>
    <trip id="bus70" type="bus_bus" depart="70.00" departLane="best" from="79716327" to="1175563719"/>
    <trip id="bus71" type="bus_bus" depart="71.00" departLane="best" from="1175569676" to="1175576976"/>
    <trip id="bus72" type="bus_bus" depart="72.00" departLane="best" departSpeed="max" from="1175569103" to="1175565705"/>
    <trip id="bus73" type="bus_bus" depart="73.00" departLane="best" from="1175576498" to="1175568050"/>
    <trip id="bus74" type="bus_bus" depart="74.00" departLane="best" from="1175571691" to="1175575941"/>
    <trip id="bus75" type="bus_bus" depart="75.00" departLane="best" from="1175571526" to="1175567644"/>
    <trip id="bus76" type="bus_bus" depart="76.00" departLane="best" from="1175576518" to="1175572422"/>
    <trip id="bus77" type="bus_bus" depart="77.00" departLane="best" from="1175565025" to="1175569182"/>
    <trip id="bus78" type="bus_bus" depart="78.00" departLane="best" from="1175570014" to="1175573226"/>
    <trip id="bus79" type="bus_bus" depart="79.00" departLane="best" from="1175575414" to="1175567202"/>
    <trip id="bus80" type="bus_bus" depart="80.00" departLane="best" from="1175569683" to="824651846"/>
    <trip id="bus81" type="bus_bus" depart="81.00" departLane="best" from="1175567207" to="1175573010"/>
    <trip id="bus82" type="bus_bus" depart="82.00" departLane="best" from="-824684662" to="1175567800"/>
    <trip id="bus83" type="bus_bus" depart="83.00" departLane="best" departSpeed="max" from="-1005479960" to="1175576085"/>
    <trip id="bus84" type="bus_bus" depart="84.00" departLane="best" departSpeed="max" from="1175564990" to="1005747012"/>
    <trip id="bus85" type="bus_bus" depart="85.00" departLane="best" from="-89280570" to="1175564278"/>
    <trip id="bus86" type="bus_bus" depart="86.00" departLane="best" from="821887028" to="1175576548"/>
    <trip id="bus87" type="bus_bus" depart="87.00" departLane="best" from="1175571684" to="1175572944"/>
    <trip id="bus88" type="bus_bus" depart="88.00" departLane="best" from="572106487" to="1175564068"/>
    <trip id="bus89" type="bus_bus" depart="89.00" departLane="best" from="1175567158" to="1175576332"/>
    <trip id="bus90" type="bus_bus" depart="90.00" departLane="best" from="1175571594" to="-821958352"/>
    <trip id="bus91" type="bus_bus" depart="91.00" departLane="best" from="1175574232" to="1175568052"/>
    <trip id="bus92" type="bus_bus" depart="92.00" departLane="best" from="-1039032280" to="247535990"/>
    <trip id="bus93" type="bus_bus" depart="93.00" departLane="best" from="1175565062" to="1175570885"/>
    <trip id="bus94" type="bus_bus" depart="94.00" departLane="best" from="1175575280" to="1175571627"/>
    <trip id="bus95" type="bus_bus" depart="95.00" departLane="best" from="1175563496" to="1175570987"/>
    <trip id="bus96" type="bus_bus" depart="96.00" departLane="best" from="1175569052" to="1175573827"/>
    <trip id="bus97" type="bus_bus" depart="97.00" departLane="best" departSpeed="max" from="914646917" to="825922755"/>
    <trip id="bus98" type="bus_bus" depart="98.00" departLane="best" from="1175577144" to="821636922"/>
    <trip id="bus99" type="bus_bus" depart="99.00" departLane="best" from="1175570651" to="1175568556"/>
    <trip id="bus100" type="bus_bus" depart="100.00" departLane="best" from="1175563973" to="1175571042"/>
    <trip id="bus101" type="bus_bus" depart="101.00" departLane="best" from="1175563159" to="1175564095"/>
    <trip id="bus102" type="bus_bus" depart="102.00" departLane="best" from="-95413425" to="1175574999"/>
    <trip id="bus103" type="bus_bus" depart="103.00" departLane="best" from="1175566861" to="1002548496"/>
    <trip id="bus104" type="bus_bus" depart="104.00" departLane="best" from="98356942" to="1175567446"/>
    <trip id="bus105" type="bus_bus" depart="105.00" departLane="best" from="1175576468" to="79536441"/>
    <trip id="bus106" type="bus_bus" depart="106.00" departLane="best" from="1175574653" to="1175572533"/>
    <trip id="bus107" type="bus_bus" depart="107.00" departLane="best" from="1175573358" to="-824659720"/>
    <trip id="bus108" type="bus_bus" depart="108.00" departLane="best" from="1175575448" to="1175570593"/>
    <trip id="bus109" type="bus_bus" depart="109.00" departLane="best" from="1175576107" to="78518730"/>
    <trip id="bus110" type="bus_bus" depart="110.00" departLane="best" from="1175571494" to="88528667"/>
    <trip id="bus111" type="bus_bus" depart="111.00" departLane="best" from="1175574316" to="1175572226"/>
    <trip id="bus112" type="bus_bus" depart="112.00" departLane="best" from="1175571866" to="1175574877"/>
    <trip id="bus113" type="bus_bus" depart="113.00" departLane="best" from="1175570516" to="1175566307"/>
    <trip id="bus114" type="bus_bus" depart="114.00" departLane="best" from="1175563978" to="88740882"/>
    <trip id="bus115" type="bus_bus" depart="115.00" departLane="best" from="1175572253" to="1175563301"/>
    <trip id="bus116" type="bus_bus" depart="116.00" departLane="best" from="1175571392" to="894445538"/>
    <trip id="bus117" type="bus_bus" depart="117.00" departLane="best" from="1175574240" to="1175564968"/>
    <trip id="bus118" type="bus_bus" depart="118.00" departLane="best" from="1175574097" to="1175570299"/>
    <trip id="bus119" type="bus_bus" depart="119.00" departLane="best" from="1175571395" to="-571429944"/>
    <trip id="bus120" type="bus_bus" depart="120.00" departLane="best" from="1175564570" to="1175569071"/>
    <trip id="bus121" type="bus_bus" depart="121.00" departLane="best" from="1175571722" to="1175572305"/>
    <trip id="bus122" type="bus_bus" depart="122.00" departLane="best" from="1175567612" to="-1001723672"/>
    <trip id="bus123" type="bus_bus" depart="123.00" departLane="best" from="1175575849" to="1175563224"/>
    <trip id="bus124" type="bus_bus" depart="124.00" departLane="best" from="1175566823" to="1175563156"/>
    <trip id="bus125" type="bus_bus" depart="125.00" departLane="best" from="1175564125" to="1175572522"/>
    <trip id="bus126" type="bus_bus" depart="126.00" departLane="best" from="1175573859" to="1175572889"/>
    <trip id="bus127" type="bus_bus" depart="127.00" departLane="best" from="1175573431" to="1175567683"/>
    <trip id="bus128" type="bus_bus" depart="128.00" departLane="best" from="1175563988" to="1175575045"/>
    <trip id="bus129" type="bus_bus" depart="129.00" departLane="best" from="1175564760" to="1175572780"/>
    <trip id="bus130" type="bus_bus" depart="130.00" departLane="best" from="1175563924" to="1175562947"/>
    <trip id="bus131" type="bus_bus" depart="131.00" departLane="best" from="1175567275" to="1175563756"/>
    <trip id="bus132" type="bus_bus" depart="132.00" departLane="best" from="91387721" to="1175575767"/>
    <trip id="bus133" type="bus_bus" depart="133.00" departLane="best" from="1175572681" to="1003963322"/>
    <trip id="bus134" type="bus_bus" depart="134.00" departLane="best" from="1175569547" to="-49156618"/>
    <trip id="bus135" type="bus_bus" depart="135.00" departLane="best" from="1175575642" to="1175567733"/>
    <trip id="bus136" type="bus_bus" depart="136.00" departLane="best" from="1175575210" to="-821949413"/>
    <trip id="bus137" type="bus_bus" depart="137.00" departLane="best" from="1175568988" to="1175571696"/>
    <trip id="bus138" type="bus_bus" depart="138.00" departLane="best" from="1175566967" to="1175569048"/>
    <trip id="bus139" type="bus_bus" depart="139.00" departLane="best" from="1175570499" to="1175571696"/>
    <trip id="bus140" type="bus_bus" depart="140.00" departLane="best" from="1175567673" to="1175570821"/>
    <trip id="bus141" type="bus_bus" depart="141.00" departLane="best" from="1175562757" to="1175575295"/>
    <trip id="bus142" type="bus_bus" depart="142.00" departLane="best" from="1175569538" to="1175568482"/>
    <trip id="bus143" type="bus_bus" depart="143.00" departLane="best" from="1175564638" to="1175569752"/>
    <trip id="bus144" type="bus_bus" depart="144.00" departLane="best" from="1175572916" to="1175568026"/>
    <trip id="bus145" type="bus_bus" depart="145.00" departLane="best" from="1175564414" to="1175565833"/>
    <trip id="bus146" type="bus_bus" depart="146.00" departLane="best" from="1175567744" to="1175576218"/>
    <trip id="bus147" type="bus_bus" depart="147.00" departLane="best" from="1175569307" to="-819565354"/>
    <trip id="bus148" type="bus_bus" depart="148.00" departLane="best" from="1175576450" to="1175574280"/>
    <trip id="bus149" type="bus_bus" depart="149.00" departLane="best" from="1175571166" to="1175575834"/>
    <trip id="bus150" type="bus_bus" depart="150.00" departLane="best" from="1175564454" to="1175573912"/>
    <trip id="bus151" type="bus_bus" depart="151.00" departLane="best" from="1175572316" to="824644533"/>
    <trip id="bus152" type="bus_bus" depart="152.00" departLane="best" from="1175577090" to="1175575442"/>
    <trip id="bus153" type="bus_bus" depart="153.00" departLane="best" from="1175576253" to="-797700849"/>
    <trip id="bus154" type="bus_bus" depart="154.00" departLane="best" from="1175569209" to="-1028930432"/>
    <trip id="bus155" type="bus_bus" depart="155.00" departLane="best" from="1175566924" to="1175570061"/>
    <trip id="bus156" type="bus_bus" depart="156.00" departLane="best" from="1175567964" to="1175571552"/>
    <trip id="bus157" type="bus_bus" depart="157.00" departLane="best" from="1175575448" to="1175577063"/>
    <trip id="bus158" type="bus_bus" depart="158.00" departLane="best" from="1175570608" to="1175575198"/>
    <trip id="bus159" type="bus_bus" depart="159.00" departLane="best" from="-571376701" to="1175563786"/>
    <trip id="bus160" type="bus_bus" depart="160.00" departLane="best" from="1175564141" to="1175567434"/>
    <trip id="bus161" type="bus_bus" depart="161.00" departLane="best" from="1175570568" to="1175566637"/>
    <trip id="bus162" type="bus_bus" depart="162.00" departLane="best" from="1175572899" to="1175568029"/>
    <trip id="bus163" type="bus_bus" depart="163.00" departLane="best" from="1175576992" to="1175574956"/>
    <trip id="bus164" type="bus_bus" depart="164.00" departLane="best" from="1175567230" to="1175567536"/>
    <trip id="bus165" type="bus_bus" depart="165.00" departLane="best" from="1175565035" to="824695822"/>
    <trip id="bus166" type="bus_bus" depart="166.00" departLane="best" from="1175574950" to="1175568481"/>
    <trip id="bus167" type="bus_bus" depart="167.00" departLane="best" departSpeed="max" from="1003494858" to="1175572228"/>
    <trip id="bus168" type="bus_bus" depart="168.00" departLane="best" from="1175573117" to="1175575885"/>
    <trip id="bus169" type="bus_bus" depart="169.00" departLane="best" from="1175565489" to="1175564721"/>
    <trip id="bus170" type="bus_bus" depart="170.00" departLane="best" from="1175570128" to="1175574930"/>
    <trip id="bus171" type="bus_bus" depart="171.00" departLane="best" from="1175568895" to="1175576283"/>
    <trip id="bus172" type="bus_bus" depart="172.00" departLane="best" from="1175576443" to="1175572274"/>
    <trip id="bus173" type="bus_bus" depart="173.00" departLane="best" from="1175571613" to="1175568646"/>
    <trip id="bus174" type="bus_bus" depart="174.00" departLane="best" from="1175570730" to="1175569071"/>
    <trip id="bus175" type="bus_bus" depart="175.00" departLane="best" from="1175571805" to="1175576451"/>
    <trip id="bus176" type="bus_bus" depart="176.00" departLane="best" from="1175568236" to="821901178"/>
    <trip id="bus177" type="bus_bus" depart="177.00" departLane="best" from="1175569502" to="1175573286"/>
    <trip id="bus178" type="bus_bus" depart="178.00" departLane="best" from="1175571493" to="1175572631"/>
    <trip id="bus179" type="bus_bus" depart="179.00" departLane="best" from="1175562857" to="1175566923"/>
    <trip id="bus180" type="bus_bus" depart="180.00" departLane="best" from="1175567845" to="1175573579"/>
    <trip id="bus181" type="bus_bus" depart="181.00" departLane="best" from="1175575100" to="1175576026"/>
    <trip id="bus182" type="bus_bus" depart="182.00" departLane="best" from="1175575971" to="1175563520"/>
    <trip id="bus183" type="bus_bus" depart="183.00" departLane="best" from="1175566144" to="1175571323"/>
    <trip id="bus184" type="bus_bus" depart="184.00" departLane="best" from="1175567703" to="1175566615"/>
    <trip id="bus185" type="bus_bus" depart="185.00" departLane="best" from="1175570579" to="1175565549"/>
    <trip id="bus186" type="bus_bus" depart="186.00" departLane="best" from="1175563628" to="1175569323"/>
    <trip id="bus187" type="bus_bus" depart="187.00" departLane="best" from="1175564849" to="1175568581"/>
    <trip id="bus188" type="bus_bus" depart="188.00" departLane="best" departSpeed="max" from="-571344978" to="1175566817"/>
    <trip id="bus189" type="bus_bus" depart="189.00" departLane="best" from="1175570858" to="1175575172"/>
    <trip id="bus190" type="bus_bus" depart="190.00" departLane="best" from="1175564545" to="76507000"/>
    <trip id="bus191" type="bus_bus" depart="191.00" departLane="best" from="1175576104" to="-78335785"/>
    <trip id="bus192" type="bus_bus" depart="192.00" departLane="best" from="-108452865" to="-180649336"/>
    <trip id="bus193" type="bus_bus" depart="193.00" departLane="best" from="1175575805" to="1175567918"/>
    <trip id="bus194" type="bus_bus" depart="194.00" departLane="best" from="1175562893" to="1175567730"/>
    <trip id="bus195" type="bus_bus" depart="195.00" departLane="best" from="78335866" to="1175564786"/>
    <trip id="bus196" type="bus_bus" depart="196.00" departLane="best" from="1175572629" to="1175562878"/>
    <trip id="bus197" type="bus_bus" depart="197.00" departLane="best" from="1175568759" to="1175567225"/>
    <trip id="bus198" type="bus_bus" depart="198.00" departLane="best" departSpeed="max" from="1175565265" to="1175570974"/>
    <trip id="bus199" type="bus_bus" depart="199.00" departLane="best" from="1175576429" to="1175567053"/>
    <trip id="bus200" type="bus_bus" depart="200.00" departLane="best" from="1175571038" to="1175565530"/>
    <trip id="bus201" type="bus_bus" depart="201.00" departLane="best" from="1175563197" to="1175568247"/>
    <trip id="bus202" type="bus_bus" depart="202.00" departLane="best" from="1175568003" to="1175576774"/>
    <trip id="bus203" type="bus_bus" depart="203.00" departLane="best" from="1175563543" to="1175563486"/>
    <trip id="bus204" type="bus_bus" depart="204.00" departLane="best" from="1175571306" to="1175565615"/>
    <trip id="bus205" type="bus_bus" depart="205.00" departLane="best" from="1175573870" to="1175564203"/>
    <trip id="bus206" type="bus_bus" depart="206.00" departLane="best" departSpeed="max" from="-824667438" to="1175565814"/>
    <trip id="bus207" type="bus_bus" depart="207.00" departLane="best" from="1175567674" to="1175575020"/>
    <trip id="bus208" type="bus_bus" depart="208.00" departLane="best" from="1175566449" to="1175565464"/>
    <trip id="bus209" type="bus_bus" depart="209.00" departLane="best" departSpeed="max" from="-1039010943" to="1175572543"/>
    <trip id="bus210" type="bus_bus" depart="210.00" departLane="best" from="1175574717" to="-823928973"/>
    <trip id="bus211" type="bus_bus" depart="211.00" departLane="best" departSpeed="max" from="-824637178" to="1175563124"/>
    <trip id="bus212" type="bus_bus" depart="212.00" departLane="best" from="1175573913" to="1175571453"/>
    <trip id="bus213" type="bus_bus" depart="213.00" departLane="best" from="1175564491" to="1175573682"/>
    <trip id="bus214" type="bus_bus" depart="214.00" departLane="best" from="1175575439" to="49157410"/>
    <trip id="bus215" type="bus_bus" depart="215.00" departLane="best" from="1175574908" to="1175571497"/>
    <trip id="bus216" type="bus_bus" depart="216.00" departLane="best" from="-88370687" to="1175570959"/>
    <trip id="bus217" type="bus_bus" depart="217.00" departLane="best" from="1175569144" to="1175568753"/>
    <trip id="bus218" type="bus_bus" depart="218.00" departLane="best" from="1175569726" to="1175570899"/>
    <trip id="bus219" type="bus_bus" depart="219.00" departLane="best" from="1175574752" to="1175576871"/>
    <trip id="bus220" type="bus_bus" depart="220.00" departLane="best" from="1175564632" to="1175571324"/>
    <trip id="bus221" type="bus_bus" depart="221.00" departLane="best" from="824620505" to="1175571694"/>
    <trip id="bus222" type="bus_bus" depart="222.00" departLane="best" from="1175576127" to="1175564713"/>
    <trip id="bus223" type="bus_bus" depart="223.00" departLane="best" from="1175570923" to="-88370694"/>
    <trip id="bus224" type="bus_bus" depart="224.00" departLane="best" departSpeed="max" from="-824894061" to="1175576756"/>
    <trip id="bus225" type="bus_bus" depart="225.00" departLane="best" from="1175569697" to="1175565071"/>
    <trip id="bus226" type="bus_bus" depart="226.00" departLane="best" from="1175572416" to="1175569100"/>
    <trip id="bus227" type="bus_bus" depart="227.00" departLane="best" from="1175572949" to="-79091636"/>
    <trip id="bus228" type="bus_bus" depart="228.00" departLane="best" from="1175572017" to="1175568900"/>
    <trip id="bus229" type="bus_bus" depart="229.00" departLane="best" from="1175572572" to="1175563402"/>
    <trip id="bus230" type="bus_bus" depart="230.00" departLane="best" from="894445538" to="-824366349"/>
    <trip id="bus231" type="bus_bus" depart="231.00" departLane="best" from="1175563109" to="1175571551"/>
    <trip id="bus232" type="bus_bus" depart="232.00" departLane="best" from="1175568424" to="1175570847"/>
    <trip id="bus233" type="bus_bus" depart="233.00" departLane="best" departSpeed="max" from="-1005479960" to="1175571676"/>
    <trip id="bus234" type="bus_bus" depart="234.00" departLane="best" from="1175566516" to="1175572903"/>
    <trip id="bus235" type="bus_bus" depart="235.00" departLane="best" from="1175564457" to="1175575006"/>
    <trip id="bus236" type="bus_bus" depart="236.00" departLane="best" from="1175566567" to="1175563462"/>
    <trip id="bus237" type="bus_bus" depart="237.00" departLane="best" from="1175575805" to="1175572519"/>
    <trip id="bus238" type="bus_bus" depart="238.00" departLane="best" from="1175569135" to="-572102390"/>
    <trip id="bus239" type="bus_bus" depart="239.00" departLane="best" from="1175572240" to="1175575291"/>
    <trip id="bus240" type="bus_bus" depart="240.00" departLane="best" from="1175571850" to="1175564094"/>
    <trip id="bus241" type="bus_bus" depart="241.00" departLane="best" from="91859826" to="1175569233"/>
    <trip id="bus242" type="bus_bus" depart="242.00" departLane="best" from="1175570512" to="1175574887"/>
    <trip id="bus243" type="bus_bus" depart="243.00" departLane="best" from="1175567897" to="1175564378"/>
    <trip id="bus244" type="bus_bus" depart="244.00" departLane="best" from="1175566201" to="1175574383"/>
    <trip id="bus245" type="bus_bus" depart="245.00" departLane="best" from="1175567604" to="1175575461"/>
    <trip id="bus246" type="bus_bus" depart="246.00" departLane="best" from="1175570127" to="1175567951"/>
    <trip id="bus247" type="bus_bus" depart="247.00" departLane="best" from="-88370687" to="1175575375"/>
    <trip id="bus248" type="bus_bus" depart="248.00" departLane="best" from="1175575877" to="1175573035"/>
    <trip id="bus249" type="bus_bus" depart="249.00" departLane="best" from="1175565756" to="-107286386"/>
    <trip id="bus250" type="bus_bus" depart="250.00" departLane="best" from="1175565490" to="1175574403"/>
    <trip id="bus251" type="bus_bus" depart="251.00" departLane="best" from="1175567366" to="1175575845"/>
    <trip id="bus252" type="bus_bus" depart="252.00" departLane="best" from="1175567660" to="1175566824"/>
    <trip id="bus253" type="bus_bus" depart="253.00" departLane="best" from="1175568070" to="1002981958"/>
    <trip id="bus254" type="bus_bus" depart="254.00" departLane="best" from="1175565754" to="908399099"/>
    <trip id="bus255" type="bus_bus" depart="255.00" departLane="best" departSpeed="max" from="-247536003" to="-1001615015"/>
    <trip id="bus256" type="bus_bus" depart="256.00" departLane="best" from="-571431284" to="1175571040"/>
    <trip id="bus257" type="bus_bus" depart="257.00" departLane="best" from="1175572239" to="1175568336"/>
    <trip id="bus258" type="bus_bus" depart="258.00" departLane="best" from="1175565635" to="1175569626"/>
    <trip id="bus259" type="bus_bus" depart="259.00" departLane="best" departSpeed="max" from="-571388760" to="824638102"/>
    <trip id="bus260" type="bus_bus" depart="260.00" departLane="best" from="247478993" to="1175576986"/>