<?xml version="1.0" encoding="UTF-8"?>

<!-- generated on 2023-07-01 23:52:55.434516 by randomTrips.py v1_18_0+0023-ef591d47046
<configuration>
    <duarouter-routing-threads value="8"/>
    <end value="1000.0"/>
    <max-distance value="4000.0"/>
    <net-file value="pasto.net.xml.gz"/>
    <pedestrians value="True"/>
    <period value="1.0"/>
    <random value="True"/>
    <remove-loops value="True"/>
    <route-file value="pasto.pedestrian.rou.xml"/>
    <output-trip-file value="pasto.pedestrian.trips.xml"/>
    <prefix value="ped"/>
    <validate value="True"/>
    <vehicle-class value="pedestrian"/>
    <via-edge-types value="highway.motorway,highway.motorway_link,highway.trunk_link,highway.primary_link,highway.secondary_link,highway.tertiary_link"/>
</configuration>
-->

<!-- generated on 2023-07-01 23:52:47 by Eclipse SUMO duarouter Version v1_18_0+0023-ef591d47046
<configuration xmlns:xsi="http://www.w3.org/2001/XMLSchema-instance" xsi:noNamespaceSchemaLocation="http://sumo.dlr.de/xsd/duarouterConfiguration.xsd">

    <input>
        <net-file value="pasto.net.xml.gz"/>
        <route-files value="pasto.pedestrian.trips.xml"/>
    </input>

    <output>
        <output-file value="pasto.pedestrian.rou.xml"/>
        <alternatives-output value="NUL"/>
    </output>

    <processing>
        <remove-loops value="true"/>
        <routing-threads value="8"/>
    </processing>

    <time>
        <begin value="0.0"/>
        <end value="1000.0"/>
    </time>

    <report>
        <no-warnings value="true"/>
        <ignore-errors value="true"/>
        <no-step-log value="true"/>
    </report>

</configuration>
-->

<routes xmlns:xsi="http://www.w3.org/2001/XMLSchema-instance" xsi:noNamespaceSchemaLocation="http://sumo.dlr.de/xsd/routes_file.xsd">
    <vType id="ped_pedestrian" vClass="pedestrian"/>
    <person id="ped0" type="ped_pedestrian" depart="0.00">
        <walk edges="1175572857 1175573029 1175573030 1175573031 1175573032 155209978 1175573060 1175571260 1175565248 1175565247 1175565246 1175565245 1175565240 1175565239 -1005800377 1175565132 1175565131 1175572267 1175572266 1175572265 1175572563 1175572562 1175572561 1175572560 1175572568 1175572569 1175572576 1175572577 1175572578 1175572579 1175572580 1175572581 1175572582 1175572583 1175572570 1175572571 1175572572"/>
    </person>
    <person id="ped1" type="ped_pedestrian" depart="1.00">
        <walk edges="571386824 1175570236 1175574637 1175570482 1175570483 1175564034 1175571036 1175571035 1175571034 96321160 1074501793 436179698 1175577096 1175577109 1074501788 1175576607 1175573571 1175573572 1175573573 1175573574 1175573575 1175576503 1175576504 894323143 1175572063 1175570390 626987871 1175564005 1175563965 1175563966 1175563967 1175563968 1175563969 1175563970 1175563971 1175570277 376279915 1175570281 1175570282 -79091661 79091831"/>
    </person>
    <person id="ped2" type="ped_pedestrian" depart="2.00">
        <walk edges="1175574129 1175563747 102150870 1175568745 247536012 1175568759 1175571338 1175571091 1175571090 1175571089 1175571088 1175571087 1175570141 1175576567 1175576566 1175576565 90972279 1175574901 1175574900 1175574899 1175574898 1175574897 1175574896 1175574895 1175574894 1175574893 1175574892 1175574532 1175575133 1175576630 1175571045 1175571044 1175571043 1175571042 1175571068 1175571067 1175571066 1175571065 1175571064 1175564196 1175564186 247535958 -79535904 1175567059 1175574996 1175574997 1175574998 1175574999 1175574255 1175569791 1175569792 1175569793 1175569794 1175569795 1175569796 1175569797 1175563651 1175563650 1175563658 1175563657 1175563656 1175566820"/>
    </person>
    <person id="ped3" type="ped_pedestrian" depart="3.00">
        <walk edges="1175569623 1175563553 1175563560 1175563561 1175563547 1175563548 1175563549 1175566905 1175574772 1175574510 1175574723 1175574722 1175574721 1175574720 1175574719 1175569432 1175569457 1175569456 1175569455 1175569454 1175569453 1175569449 1175569441 1175569431 1175569430 -167671622 1175575063 1175575064 1175575065 1175575066 1175567027 1175567026 1175577180 1175577181 1175570499 1175565049 1175571000 1175571001 1175571002 1175576496 1175576495 1175576494 1175576493 1175576492 1175576491 1175573252 1175576601 1175576602 1175576488 1175576489 1175572483 1175572482 1175572481 1175572480 1175572490 1175572489 1175572488 1175572487 1175572486 1175572485 1175572484 1175572479 1175570914 1175570615 1175570614 1175570613 1175570612 1175570611 1175570610 1175570622"/>
    </person>
    <person id="ped4" type="ped_pedestrian" depart="4.00">
        <walk edges="1175564967 1175564968 1175564970 1175564971 1175564972 1175564973 1175564974 1175573836 1175572171 1175572172 1175572173 1175572174 1175572175 1175572176 1175572167 1175572168 1175572169 1175572170 1175573608 1175573607 1175566005 1175566006 1175566007 -821908861 1175571789 1175571790 1175571770 1175571794 1175571795 1175566150 1175575543 1175575542 1175568668 1175568667 1175566221 1175566222 1175573848 1175573849 1175573850 1175573851 1175575537 1175575538 1175575539 1175575540 79092020 1175567522 1175570355 1175573427 1175573426 1175573425 1175573424 1175566020 1175566021 1175566022 1175575319 1175563835 1175563834 1175563833 1175563832 1175563831 1175563830 1175563838 1175563829 1175563828 1175563827 1175563826 1175563825 821236272 1175563817 1175566073"/>
    </person>
    <person id="ped5" type="ped_pedestrian" depart="5.00">
        <walk edges="1175570288 1175570289 -632005250 1175570285 1175570286 630039298 1175563898 1175563897 1175563896 1175575428 1175575429 1175575430 1175575431 1175575432 1175575433 1175575434 1175575435 1175575436 1175575437 1175570164 1175563937 -821504313 -821504312 1175573290 1175573291 1175573292 1175573293 1175573294 1175575384 1175573184 1175569665 1175569666 1175569669 1175569670 1175569671 1175569672 1175569673 1175569674 1175569675 1175569676 1175569667 1175569668 1175569583 1175569584 1175569601 -782472048 821524259 1175572181 48509142 1175572875"/>
    </person>
    <person id="ped6" type="ped_pedestrian" depart="6.00">
        <walk edges="1175570210 1175577187 1175575379 1175575380 1175570057 1175576503 1175570350 1175570349 1175572069 1175576480 931996261 1175572441 79092004 1175570365 1175570366 1175570367 1175570368 1175570369 1175572481 1175570391 1175572278 1175572277 1175572276 1175572275 1175572274 1175572273 1175573211 1175573210 1175573209 1175573208 1175572335 1175572334 1175572333 1175572332 1175572331 1175572330 1175573387 1175573538 1175573928 1175573927 1175565128"/>
    </person>
    <person id="ped7" type="ped_pedestrian" depart="7.00">
        <walk edges="1175573133 1175573134 1175573135 1175573136 1175570422 1175576062 1175568107 1175568108 1175564050 1175564051 1175570564 1175570565 1175570566 1175570567 1175570726 1175564101"/>
    </person>
    <person id="ped8" type="ped_pedestrian" depart="8.00">
        <walk edges="-47997595 1175571015 1175571014 1175571022 1175571021 1175571020 1175571019 1175571018 1175571017 1175571016 1175571013 1175571012 48870938 48870937 48483043 1175576737 1175576745 1175576744 1175576743 1175576742 1175576741 1175576740 1175576739 1175576738 1175576736 1175570913 1175570914 1175570915 1175570916 1175570917 1175570918 1175570919 1175570920 1175570912 788639962 1175576782 1175576810 1175573886 1175573885 1175573884 1175573883 1175568380 1175570108 1175570107 1175570106 1175566041 1175566042 1175575507 1175575506"/>
    </person>
    <person id="ped9" type="ped_pedestrian" depart="9.00">
        <walk edges="821923847 1175575541 -79092020 1175567523 1175567524 1175567525 1175573665 1175573664 1175570353 1175570352 1175570351 1175570362 1175570361 1175570360 1175570359 1175570358 1175570357 1175570356 626987871 1175570390 1175572063 894323143 1175576504 1175576503 1175573575 1175573574 1175573573 1175573572 1175573571 1175576607 1074501788 1175577109 1175577096 436179698 1074501793 96321160 1175571034 1175571035 1175571036 1175571037 1175571038 1175571039 1175569954 1175569955 1175569956 1175569957 1175569926 1175571149 1175571148 1175571147 1175574806 1175566432"/>
    </person>
    <person id="ped10" type="ped_pedestrian" depart="10.00">
        <walk edges="1175564956 1175572154 1175572153 1175572152 1175572147 1175572146 1175573608 626983748 1175573522 1175573521 1175573494 1175573495 1175573496 -571372358 1175566282 1175570110 1175570109 1175568380 1175573883 1175573884 1175573885 1175573886 1175576810 1175576782 788639962 1175570912 1175570920 1175570919 1175570918 1175570917 1175570916 1175570915 1175570914 1175570913 1175576736 1175576738 1175576739 1175570674 1175570673 1175570672 1175570659 1175570660 1175570661 1175570662 1175570663 1175570664 1175570665 1175576721 48870923 48870924 48483045 1175570573"/>
    </person>
    <person id="ped11" type="ped_pedestrian" depart="11.00">
        <walk edges="1175564708 1175564707 1175568164 1175568163 1175568162 1175568161 1175567342 1175567341 -633053586 1175576381 1175576380 821504319 -571344003 821504313 1175570165 1175570164 1175575437 1175575436 1175575435 1175575434 1175575433 1175575432 1175575431 1175575430 1175575429 1175575428 1175563896 1175563897 1175563898 630039298 1175570286 1175570285 -632005250 1175570289 1175570288 1175570287 1175567677 1175562768 -1090843016 1175562770 1175567679 1175567680 1175565095 1175565096 1175565097 1175565098 1175565099 1175576399 1175576398 1175576397 1175576396 1175576395"/>
    </person>
    <person id="ped12" type="ped_pedestrian" depart="12.00">
        <walk edges="797703537 1175566991 247462400 1175567168 1175567169 1175567170 1175569628 1175563557 1175563556 1175563555 1175563554 1175566332 1175566331 -1018748088 1175563572 1175569450 1175569451 1175569452 1175573189 1175564892 1175564891 1175566729 1175566728 1175567253 1175575243 1175575242 1175575241 1175575240 1175574439 1175574438 1175574437 1175575062 1175575061 1175575060 1175566461 1175573293 1175573292 1175573291 1175573290 821504312 571344003 1175568181 1175568182 1175568183 -633053586 1175567341 1175567342 1175568161 1175568162 1175568163 1175568164 1175568165 1175567856 1175564996 -824650894"/>
    </person>
    <person id="ped13" type="ped_pedestrian" depart="13.00">
        <walk edges="1175564160 1175577103 1175577102 1175577101 -1083321030 1175569947 1175569943 1175569942 1175570498 821626692 1175574828 1175574829 1175574840 1175574851 1175574854 1175574855 1175574856 1175574857 1175574858 1175574859 1175574830 1175574831 1175574832 1175574833 1175574834 1175574835 1175574836 1175574837 1175574838 1175574839 1175574841 1175574842 1175574313 1175566760 1175566759 1175574824"/>
    </person>
    <person id="ped14" type="ped_pedestrian" depart="14.00">
        <walk edges="1175572341 1175572340 1175576287 1175576849 1175576850 1175576851 1175576852 1175576840 1175572560 1175572561 1175572562 1175572563 1175572265 1175572266 1175572267 1175565131 1175565132 -1005800377 1175565239 1175565240 1175570526"/>
    </person>
    <person id="ped15" type="ped_pedestrian" depart="15.00">
        <walk edges="1005535553 1175566159 1175573446 1175573447 1175571791 821967191 1175573543 1175573544 1175567513 1175575543 1175575542 1175568668 1175568667 1175566221 1175566222 1175573848 1175573849 1175573850 1175573851 1175575537 1175575538 1175575539 1175575540 79092020 1175567522 1175570355 1175573427 1175573426 1175573425 1175573424 1175566020 1175566021 1175566022 1175575319 1175563835 1175563834 1175563833 1175563832 1175563831 1175563830 1175563838 1175563829 1175563828 1175563827 1175563826 1175563825 821236272"/>
    </person>
    <person id="ped16" type="ped_pedestrian" depart="16.00">
        <walk edges="1175573005 1175573004 1175572558 1175572557 48563000 1005747014 1175564250 1175564249 1175571202 1175571203 1175571204 1175571205 1175571206 96379307 1175572997 1175570521 1175562862 1175562861 1175562860 1175570258 1175570259 1175570260 1175570261 1175570509 1175576710 1175576711 1175576714 1175576715 1175576716 1175576717 1175576718 1175576719 1175576720 1175576721 1175576712 1175576713 1175569904 1175569905 1175569906 1175569907 1175569908 48268651 1175570416 1175570775"/>
    </person>
    <person id="ped17" type="ped_pedestrian" depart="17.00">
        <walk edges="1175576405 1175566874 -869736322 1175573188 1175573187 1175573186 1175573185 1175569452 1175569451 1175569450 1175569448 1175569447 1175569446 1175569445 1175569444 1175569443 1175569442 1175569440 1175569439 1175569438 1175569437 1175569436 1175569435 1175569434 1175569433 1175569432 1175569457 1175569456 1175569455 1175569454 1175569453 1175569449 1175569441 1175569431 1175569430 1175566680 1175566679 1175566678 1175566677 1175566676 1175566675 1175566674 1175566673 429965962 1175570394 1175570323 1175570324 1175570329 1175570330 1175570322 1175570321"/>
    </person>
    <person id="ped18" type="ped_pedestrian" depart="18.00">
        <walk edges="-572146505 1175564939 1175573804 1175573511 1175573510 1175575645 1175575644 1175575643 1175575642 1175567595 -626962595 1175573458 1175565923 1175567500 1175567501 1175567502 1175575540 79092020 1175567522 1175570355 1175573427 1175573426 1175573425 1175573424 1175566020 1175566021 1175566022 1175575319 1175563835 1175563834 1175563833 1175563832 1175569995 1175569994 1175570002 1175570001 1175570000 1175564163 1175564164 1175573842 1175573841 1175573676 1175569975 1175569974 1175569973 1175573348 1175573347 1175573346 1175573345 1175573344 1175573343 1175572181 821524259 -782472048 1175569601 1175569584 1175569583 1175569668 1175569667 1175569676 1175569675 1175569674 1175569673 1175569672 1175569671 -79536428 1175576377 821524255"/>
    </person>
    <person id="ped19" type="ped_pedestrian" depart="19.00">
        <walk edges="-1003896075 1175562776 1003899617 1175563316 1175563315 1175563314 1175568426 1175568425 1175564211 1175564219 1175563321 1175563320 1175576107 1175576108 1175576109 1175568349 -917429257 1175571083 1175571082 1175571081 1175571080 1175571079 1175571371 1175571370 1175568346 915729878 1175568343"/>
    </person>
    <person id="ped20" type="ped_pedestrian" depart="20.00">
        <walk edges="824684672 1175564383 1175575962 1175575963 1175575964 1175575965 1175575966 1175572752 1175572753 1175572754 1175572755 1175572756 1175569124 1175574055 1175574056 1175574057 1175574058 1175574059 1175574060 1175574061 1175574062 -572150088 -788913961 1175569847 1175569848 1175569849 1175569850 1175569843 1175569844 1175569845 1175564341 1175571091 1175574517 1175574518 1175574519 1175574243 1175573991 1175575045 1175574773 1175574774 1175574775 1175576556 1006064981 1175569347 1164047165 1175571062 1175571061 1175564194 1175564193 1175564208 894445545 1175568836 894445538 1175563063 1175568957 1175568958 1175568959 1175568960 1175568961 1175576507 1175576508 -107286330 1175574280 1175574281 1175574282 1175574283 1175574284 1175574285"/>
    </person>
    <person id="ped21" type="ped_pedestrian" depart="21.00">
        <walk edges="1175575071 1175575072 1175565126 1175565127 1175564332 1175564331 -530397329 1175575387 1175563758 1175566505 1175566504 1175566550 1175566549 1175566777 1175566778 1175566779 1175566780 1175566781 1175566782 -79536461 1175574928 1175563773 1175566757 1175566756 1175574379 1175574380 1175573733 1175574204 821560549 1175576150 1175576149 1175576148 1175570964 1175570963 1175570962 1175570933 1175570932 1175570931 1175570930 1175570929 1175570928 1175570927 1175570926 1175572489 1175572488 1175572487 1175572486 1175572485 1175572484 1175572479 1175572478 1175576921 1175576920 1175569519 1175568362"/>
    </person>
    <person id="ped22" type="ped_pedestrian" depart="22.00">
        <walk edges="1175564800 1175563424 1175566939 1175566938 1175566937 1175566936 1175564790 1175571839 1175574038 1175574037 1175574036 1175574035 1175574034 1175574033 1175563640 1175563641 1175563642 1175563643 1175569729 1175567047 1175569721 1175569722 1175569723 1175569724 1175569804 1175569805 1175569806 1175569807 1175569808 633067100 1175576673 1175576662 -571127533 1175571421 571131909 1175568328 1175568327 1175568326 1175576655 1175576654 821628437 1175574134 1175574133 1175569929 1175569928 1175569927 1175569926 1175569936 1175569937 1175569938 1175569939 1175569940 1175569941 1175571129 1175571130 1175576571 1175576572 1175576573 1175576574 1175576575 1175576576 1175576577 1175570439 1175570440 1175570441 1175570442 1175570443 1175570444 1175570445 1175570446 1175574202 1175574203 1175566142"/>
    </person>
    <person id="ped23" type="ped_pedestrian" depart="23.00">
        <walk edges="1175573782 1175576296 572101900 1175570835 1175570836 48375932 1175571389 1175571388 1175571385 1175571384 268532983 392852643 48483043 1175576713 1175576712 1175576721 1175576720 1175576719 1175576718 1175576717 1175576716 1175576715 1175576714 1175576711 1175576710 1175570509 1175570261 1175570260 1175570259 1175570258 1175562860 1175562861 1175562862 1175570521 1175565640 1175565639 1175565638 1175565637 1005751317 1005747015"/>
    </person>
    <person id="ped24" type="ped_pedestrian" depart="24.00">
        <walk edges="1175576966 1175568448 1175576957 1175576964 1175576965 1175570054 1175570208 1175570209 1175570210 1175577187 1175575379 1175575380 1175570057 1175576503 1175576504 894323143 1175572063 1175570390 626987871 1175564005 1175563965 1175563966 1175563967 1175563968 1175563969 1175563970 1175563971 1175570277 376279915 1175570281 1175570282 79091661 1175566275 1175566274 1175573325 1175573324 1175573323 1175573322 1175575537 1175573459 1175573458 -626962595 1175575637 1175575638 1175575639 1175575640 1175575641 1175569319 1175569320 1175569321 1175569322 1175569323 1175573695 1175573696 1175573697 1175573698 1175573699 1175575853 1175575854 1175575855 1175575936 572147143 824641786"/>
    </person>
    <person id="ped25" type="ped_pedestrian" depart="25.00">
        <walk edges="-572102323 572102323 1175565867 824631904 1175573364 1175573363 1175575937 1175575936 1175567754 1175567747 1175567748 1175575851 1175575597 1175575598 1175575599 1175575600 1175575601 1175575602 821948039 821948040 1175576789 1175576790 1175568374 1175568375 1175568376 1175568377 1175568378 1175570355 1175573427 1175573426 1175573425 1175573424 1175566020 1175566021 1175566022 1175575319 1175563835 1175563834 1175563833 1175563832 1175569995 1175569994 1175570002 1175570001 1175570000 1175564163 1175564164 1175573842 1175573841 1175573676 1175569975 1175569974 1175569973 1175573348 1175573347 1175573346 1175573345 1175573344 1175573343 1175572181 821524259 -782472048 1175569601 1175569584 1175569583 1175569668 1175569667 1175569676 1175569675 1175569674 1175569673 1175569672 1175569671 1175569670 1175569669 1175569666 1175569665 1175573184 1175575384 1175573294 1175573293 1175573292 1175573291 1175573290 821504312 571344003 1175568181 1175568182 1175568183 -633053586 1175567341 1175567342 1175576347 1175576348 1175576349 1175576350 1175576351 1175576352 1175575961 1175562757 1175576191 1175576190 1175568066"/>
    </person>
    <person id="ped26" type="ped_pedestrian" depart="26.00">
        <walk edges="1175571934 1175573411 1175573410 1175573550 1175573549 1175573509 1175572867 572113401 1175569997 1175569996 1175569995 1175569994 1175570002 1175570001 1175570000 1175564163 1175564164 1175573842 1175573841 1175573676 1175569975 1175569974 1175569973 1175573348 1175573347 1175573346 1175573345 1175573344 1175573343 1175572181 821524259 -782472048 1175569601 1175569584 1175569583 1175569668 1175569667 1175569676 1175569675 1175569674 1175569673 1175569672 1175569671 1175569670 1175569669 1175569666 1175569665 1175573184 1175575384 1175573294 1175573293 1175573292 1175573291 1175573290 821504312 571344003 1175568181 1175568182 1175568183 -633053586 1175567341 1175567342 1175576347 1175576348 1175576349 1175576350 1175576351 1175576352 1175575961 1175562757 1175576191 1175576190 1175567853 1175567854 1175567855 1175564510 -91758574 1175568354"/>
    </person>
    <person id="ped27" type="ped_pedestrian" depart="27.00">
        <walk edges="1175571890 1175571888 1175571889 1175566292 1175570362 1175573768 1175573769 1175573770 1175573600 1175573601 1175573712 1175573713 1175575565 1175575566 1175573182 1175573183 91859814 1175573739 1175573740 1175573741 1175576917 1175569031 1175569030 1175570820 1175570819 1175570818 1175570817 1175570816 1175570828 1175572377 1175572578 1175572577 1175572576 1175572569 1175577026 1175575729 1175575730 1175575731 1175575732 1175575733 1175572340 1175572341 1175572342 1175572343 1175572344 1175572345 1175572346 1175572347 1175572348 1175572527 1175572528 1175572529 1175572530 1175572531 1175572532 1175572533"/>
    </person>
    <person id="ped28" type="ped_pedestrian" depart="28.00">
        <walk edges="1175573767 1175569325 1175569324 1175575491 1175575498 1175575497 1175575496 1175575495 1175575494 1175575493 1175567455 1175567453 1175567452 1175566148 1175566043 1175566042 1175566041 1175570105 1175570104 1175570102 1175570101 1175576806 1175576805 1175576797 1175570278 1175570279 376279914 1175563972 1175563971 1175563970 1175563969 1175563968 1175563967 1175563966 1175563965 1175564005 626987871 1175570390 1175572063 894323143 1175576504 1175576503 1175570057 1175575380 1175575379 1175577182 1175577183 1175572185 1175572186 1175572187 438345819 1175575004 1175575003 1175575002 1175570498 821626692 1175574828 1175574829 1175574840 1175574851 1175574854 1175574855 1175574856 1175574857 1175574858 1175574859 1175574830 1175574831 79536619 79536517 -821635962"/>
    </person>
    <person id="ped29" type="ped_pedestrian" depart="29.00">
        <walk edges="-572032376 1175564308 1175564307 1175564306 1175575589 1175575590 1175575591 1175570158 1175570159 1175570355 1175570354 1175570353 1175570352 1175570351 1175570362 1175570361 1175570360 1175570359 1175570358 1175570357 1175570356 626987871 1175570390 1175572063 894323143 1175576504 1175573247 1175573248 1175573249 1175573250 1175573251 1175576491 1175576492 1175566008 1175572435 1175572436 1175572437 96321157 1175570979 1175572511 1175570233 1175574958"/>
    </person>
    <person id="ped30" type="ped_pedestrian" depart="30.00">
        <walk edges="1175563545 1175563515 1175563516 1175563517 1175563518 1175563519 1175563520 1175569591 1175569668 1175569583 1005275193 1175573623 1175573624 1175573625 1175563509 1175563508 1175563507 1175563506 1175563505 1175563504 1175567164 1175567163 1175564042 1175564043 788626933 1175577163 1175577044 1175577043 1175572131 1175565030 1175577180 1175577181 1175570213 1175570214 1175570498 1175570238 1175570237 1175570245 1175570244 1175570243 1175570242 1175570241 1175570240 1175570239 1175570236 1175570235 1175576573 1175576574"/>
    </person>
    <person id="ped31" type="ped_pedestrian" depart="31.00">
        <walk edges="1175569636 1175569446 1175575010 1175564886 1175564885 1175564884 1175564894 1175564893 1175564892 1175564891 1175566729 1175566728 1175567253 1175575243 1175575242 1175575241 1175575240 1175574439 1175574438 1175574437 1175575062 1175575061 1175575060 1175566461 1175573293 1175573292 1175573291 1175573290 821504312 571344003 1175568181 1175568182 1175568183 -633053586 1175567341 1175567342 1175576347 1175576348 1175576349 1175576350 1175576351 1175576352 1175575961 1175562757 1175576191 1175576190 1175576189 1175576188 1175576187 1175576186 1175576185 1175576184 1175576183 1175576203 1175576202 1175576201 1175576200 -824662357 -571429939"/>
    </person>
    <person id="ped32" type="ped_pedestrian" depart="32.00">
        <walk edges="1175574653 1175574654 1175574655 247462359 1175566722 1175563576 1175563577 1175569639 1175569638 1175569637 1175569636 1175569445 1175569444 1175569443 1175569442 1175569440 1175569439 1175569438 1175569437 1175569436 1175569435 1175569434 1175569433 1175569432 1175569457 1175569456 1175569455 1175569454 1175569453 1175569449 1175569441 1175569431 1175569430 -167671622 1175575063 1175575064 1175575065 1175575066"/>
    </person>
    <person id="ped33" type="ped_pedestrian" depart="33.00">
        <walk edges="1175568583 1175568582 824620506 1175571480 1175571479 1175571478 1175571477"/>
    </person>
    <person id="ped34" type="ped_pedestrian" depart="34.00">
        <walk edges="1175573340 1175570850 1175570867 1175570866 1175570865 1175570864 1175570863 1175570862 1175570831 1175575346 1175575347 1175575348 1175575349 1175570363 1175570389 1175572066 1175572065 1175572064 1175572063 894323143 1175576504 1175576503 1175570057 1175575380 1175575379 1175577187 1175570210 1175570209 1175570208 1175569369 1175568790 1175568782 1175568783 1175574944 1175574945 1175570187 79536055 1175569568 1175574091 1175574105 1175574104 1175574103 1175574790 1175574791 1175574833 1175574834 1175574835 1175574836 1175574837 1175574838 1175574839 1175574841 1175574842 1175574313 1175566760 1175574123 1175574356"/>
    </person>
    <person id="ped35" type="ped_pedestrian" depart="35.00">
        <walk edges="1175566715 1175566582 1175566581 1175566580 1175566579 1175566578 1175563796 1175563795 1175570533 1175570532 1175570531 1175570530 1175570529 1175570527 1175570526 1175570525 1175570524 1175570523 1175570522 1175570521 1175570520 1175570519 1175570518 1175570540 1175570539 1175562866 1175562867 1175571160 1175571159 1175571158 1175571157 1175572902 1175572903 1175572904 1175572905 1175572906 1175572907 1175572908 1175572909 1175572910 1175572911"/>
    </person>
    <person id="ped36" type="ped_pedestrian" depart="36.00">
        <walk edges="1006064980 1164047165 1175571062 1175571061 1175564194 1175564193 1175564208 894445545 1175568836 -1006125762 1175563293 1175569201 1175563291 1175563290 881754941"/>
    </person>
    <person id="ped37" type="ped_pedestrian" depart="37.00">
        <walk edges="571390643 1175574664 1175574665 1175574666 821913471 247478969 1175569722 1175569723 1175569724 1175569804 1175569805 1175569806 1175569807 1175569808 633067100 1175576673 1175576662 -571127533 1175571421 571131909 1175568328 1175568327 1175568326 1175576655 1175576654 821628437 1175574134 1175574133 1175569929 1175569928 1175574366 1175574365 1175574364 1175574363 1175574611 1175574612 1175574613 1175574614 1175574615 1175571126 1175571125 1175570131 1175570132 1175570133 1175570134 1175570135 1175571087 1175571088 1175571089 1175571090 1175571091 1175571338 1175563738 1175574292 1175566633 1175574456 1175574455 1175574454 1175574545 1175574544 1175574543 1175574542 1175574541 1175574540 1175563339 1175571327 1175571331"/>
    </person>
    <person id="ped38" type="ped_pedestrian" depart="38.00">
        <walk edges="-79537173 1175569442 1175569440 1175569439 1175569438 1175569437 1175569436 1175569435 1175569434 1175569433 1175569432 1175569457 1175569456 1175569455 1175569454 1175569453 1175569449 1175569441 1175569431 1175569430 1175566680 1175566679 1175566678 1175566677 1175566676 1175566675 1175566674 1175566673 429965962 1175570394 1175570395 1175570396 429966002 1175576637 1175576653 1175576652 1175576651 1175576650 1175576649 1175571414 1175571413 1175576641 1175576642 1175572313 1175571040 1175571041 1175564186 1175564196 1175564197 1175564198 1175564199 1175564200 1175564201 1175564176 1175564177 1175564178 1175564179 1175564180 1175564181 1175564182 1175564183 1175564184 1175564185 1175564187 1175564188"/>
    </person>
    <person id="ped39" type="ped_pedestrian" depart="39.00">
        <walk edges="1175564077 1175570618 1175570619 1175570620 1175570621 1175570622 1175570610 1175570611 1175570612 1175570613 1175570614 1175570615 1175570913 1175570911 1175570910 1175570643 1175570644 1175570645 1175570646 1175570647"/>
    </person>
    <person id="ped40" type="ped_pedestrian" depart="40.00">
        <walk edges="1175573731 1175566139 1175570964 1175570965 1175570966 1175570955 1175570956 1175570957 1175570958 1175570959 1175570944 1175570942 1175570945 1175570946 1175570947 1175570948 1175570232 1175570233 1175570234 1074501790 1175570246 1175570247 1175570248 1175570249 1175570250 438341398 1175574109 1175576617 1175576616 1175576615 1175568637 1175568636 1175576634 1175576633 1175576632 -79536699 1175571418 571127532 571127533 1175576662 1175576673 633067100 1175563724 1175566869 1175567007 1175567008 1175567009 1175563714 -79536997"/>
    </person>
    <person id="ped41" type="ped_pedestrian" depart="41.00">
        <walk edges="-1006144280 1175563001 1175573955 1175562984 1175562985 1175562986 1175562987 1175562988 1175562989 1175563009 1175568888 1175568889 1175568890 1175568891 1175568892 1175566686 1175574727 1175574726 1175574725 1175574724 797700846 1175574145 1175575232 1175575233 1175575234 1175575235 1175566627 1175566626 -821635959 1175570219 1175570220 1175570221 1175570222 1175575248 1175575249 1175569453 1175569454 1175569455 1175569456 1175569457 1175569432 1175569433 1175569434 79536261 -821524252 1175574697 1175574698 1175574699 1175574700 1175574701 1175574702 1175574703 1175574693 1175574694 -79537058 1175566060 1175566574 1175563588 1175569591 1175563520 1175563519 1175563518 1175569587"/>
    </person>
    <person id="ped42" type="ped_pedestrian" depart="42.00">