<?xml version="1.0" encoding="UTF-8"?>

<!-- generated on 2023-07-01 23:24:04.829084 by randomTrips.py v1_18_0+0023-ef591d47046
<configuration>
    <allow-fringe.min-length value="1000.0"/>
    <duarouter-routing-threads value="4"/>
    <end value="1000.0"/>
    <fringe-start-attributes value="departSpeed=&quot;max&quot;"/>
    <lanes value="True"/>
    <max-distance value="10000.0"/>
    <min-distance value="3000.0"/>
    <net-file value="pasto.net.xml.gz"/>
    <period value="1.0"/>
    <random value="True"/>
    <remove-loops value="True"/>
    <route-file value="pasto.passenger.rou.xml"/>
    <trip-attributes value="departLane=&quot;best&quot;"/>
    <output-trip-file value="pasto.passenger.trips.xml"/>
    <prefix value="car"/>
    <validate value="True"/>
    <vehicle-class value="passenger"/>
    <via-edge-types value="highway.motorway,highway.motorway_link,highway.trunk_link,highway.primary_link,highway.secondary_link,highway.tertiary_link"/>
</configuration>
-->

<!-- generated on 2023-07-01 23:23:57 by Eclipse SUMO duarouter Version v1_18_0+0023-ef591d47046
<configuration xmlns:xsi="http://www.w3.org/2001/XMLSchema-instance" xsi:noNamespaceSchemaLocation="http://sumo.dlr.de/xsd/duarouterConfiguration.xsd">

    <input>
        <net-file value="pasto.net.xml.gz"/>
        <route-files value="pasto.passenger.trips.xml"/>
    </input>

    <output>
        <output-file value="pasto.passenger.trips.xml.tmp"/>
        <alternatives-output value="NUL"/>
        <write-trips value="true"/>
    </output>

    <processing>
        <remove-loops value="true"/>
        <routing-threads value="4"/>
    </processing>

    <time>
        <begin value="0.0"/>
        <end value="1000.0"/>
    </time>

    <report>
        <no-warnings value="true"/>
        <ignore-errors value="true"/>
        <no-step-log value="true"/>
    </report>

</configuration>
-->

<routes xmlns:xsi="http://www.w3.org/2001/XMLSchema-instance" xsi:noNamespaceSchemaLocation="http://sumo.dlr.de/xsd/routes_file.xsd">
    <vType id="car_passenger" vClass="passenger"/>
    <trip id="car0" type="car_passenger" depart="0.00" departLane="best" departSpeed="max" from="88370695" to="1175575017"/>
    <trip id="car1" type="car_passenger" depart="1.00" departLane="best" from="1175571783" to="1175575335"/>
    <trip id="car2" type="car_passenger" depart="2.00" departLane="best" from="247462322" to="1175566346"/>
    <trip id="car3" type="car_passenger" depart="3.00" departLane="best" from="48258664" to="1175569075"/>
    <trip id="car4" type="car_passenger" depart="4.00" departLane="best" from="1175567365" to="1175571635"/>
    <trip id="car5" type="car_passenger" depart="5.00" departLane="best" departSpeed="max" from="1175575865" to="1175569382"/>
    <trip id="car6" type="car_passenger" depart="6.00" departLane="best" from="1175563976" to="1175570632"/>
    <trip id="car7" type="car_passenger" depart="7.00" departLane="best" from="1175571850" to="1175564561"/>
    <trip id="car8" type="car_passenger" depart="8.00" departLane="best" from="1175568210" to="571369765"/>
    <trip id="car9" type="car_passenger" depart="9.00" departLane="best" from="-73573116" to="1175573863"/>
    <trip id="car10" type="car_passenger" depart="10.00" departLane="best" from="1175568147" to="1175573198"/>
    <trip id="car11" type="car_passenger" depart="11.00" departLane="best" from="-247478969" to="1175570897"/>
    <trip id="car12" type="car_passenger" depart="12.00" departLane="best" from="1175576101" to="1175571939"/>
    <trip id="car13" type="car_passenger" depart="13.00" departLane="best" from="1175567762" to="1175567020"/>
    <trip id="car14" type="car_passenger" depart="14.00" departLane="best" departSpeed="max" from="-819566326" to="1175574623"/>
    <trip id="car15" type="car_passenger" depart="15.00" departLane="best" from="-78518709" to="1175566971"/>
    <trip id="car16" type="car_passenger" depart="16.00" departLane="best" from="1175569016" to="1175567617"/>
    <trip id="car17" type="car_passenger" depart="17.00" departLane="best" from="1175568995" to="1175573683"/>
    <trip id="car18" type="car_passenger" depart="18.00" departLane="best" from="1175564413" to="1175567545"/>
    <trip id="car19" type="car_passenger" depart="19.00" departLane="best" from="1175573167" to="1175575128"/>
    <trip id="car20" type="car_passenger" depart="20.00" departLane="best" from="1175567109" to="1175573263"/>
    <trip id="car21" type="car_passenger" depart="21.00" departLane="best" from="1175572459" to="1175570094"/>
    <trip id="car22" type="car_passenger" depart="22.00" departLane="best" from="1175567652" to="1175569810"/>
    <trip id="car23" type="car_passenger" depart="23.00" departLane="best" from="1175575742" to="429965959"/>
    <trip id="car24" type="car_passenger" depart="24.00" departLane="best" departSpeed="max" from="-824631457" to="1175570521"/>
    <trip id="car25" type="car_passenger" depart="25.00" departLane="best" from="1175571800" to="1175568459"/>
    <trip id="car26" type="car_passenger" depart="26.00" departLane="best" from="1175563021" to="1175576749"/>
    <trip id="car27" type="car_passenger" depart="27.00" departLane="best" from="1175566179" to="821888939"/>
    <trip id="car28" type="car_passenger" depart="28.00" departLane="best" from="1175568826" to="1175565977"/>
    <trip id="car29" type="car_passenger" depart="29.00" departLane="best" from="1175574125" to="1175565624"/>
    <trip id="car30" type="car_passenger" depart="30.00" departLane="best" from="1175573700" to="1175569387"/>
    <trip id="car31" type="car_passenger" depart="31.00" departLane="best" departSpeed="max" from="1175568229" to="1175566779"/>
    <trip id="car32" type="car_passenger" depart="32.00" departLane="best" from="1175573849" to="1175563170"/>
    <trip id="car33" type="car_passenger" depart="33.00" departLane="best" departSpeed="max" from="1175573662" to="1175566956"/>
    <trip id="car34" type="car_passenger" depart="34.00" departLane="best" from="-824651850" to="1175574499"/>
    <trip id="car35" type="car_passenger" depart="35.00" departLane="best" from="1175565732" to="1175563589"/>
    <trip id="car36" type="car_passenger" depart="36.00" departLane="best" from="1175564457" to="1175568429"/>
    <trip id="car37" type="car_passenger" depart="37.00" departLane="best" from="1175569906" to="824659040"/>
    <trip id="car38" type="car_passenger" depart="38.00" departLane="best" from="821243396" to="1175563248"/>
    <trip id="car39" type="car_passenger" depart="39.00" departLane="best" from="1175564571" to="1175564071"/>
    <trip id="car40" type="car_passenger" depart="40.00" departLane="best" from="1175566571" to="1175570333"/>
    <trip id="car41" type="car_passenger" depart="41.00" departLane="best" from="1175567076" to="1175569308"/>
    <trip id="car42" type="car_passenger" depart="42.00" departLane="best" from="1175568433" to="1175564994"/>
    <trip id="car43" type="car_passenger" depart="43.00" departLane="best" from="1175572343" to="824940518"/>
    <trip id="car44" type="car_passenger" depart="44.00" departLane="best" from="1175569111" to="1175575551"/>
    <trip id="car45" type="car_passenger" depart="45.00" departLane="best" from="-79091780" to="1175567961"/>
    <trip id="car46" type="car_passenger" depart="46.00" departLane="best" from="1175564465" to="825922755"/>
    <trip id="car47" type="car_passenger" depart="47.00" departLane="best" from="1175566773" to="1175563330"/>
    <trip id="car48" type="car_passenger" depart="48.00" departLane="best" from="1175569544" to="-821948039"/>
    <trip id="car49" type="car_passenger" depart="49.00" departLane="best" from="1175572703" to="1175568028"/>
    <trip id="car50" type="car_passenger" depart="50.00" departLane="best" from="1175563669" to="1175575551"/>
    <trip id="car51" type="car_passenger" depart="51.00" departLane="best" from="1175567232" to="1175565968"/>
    <trip id="car52" type="car_passenger" depart="52.00" departLane="best" from="1175562943" to="1175568575"/>
    <trip id="car53" type="car_passenger" depart="53.00" departLane="best" from="1175575181" to="1175572772"/>
    <trip id="car54" type="car_passenger" depart="54.00" departLane="best" from="1175568691" to="824366350"/>
    <trip id="car55" type="car_passenger" depart="55.00" departLane="best" from="1175575559" to="1175572848"/>
    <trip id="car56" type="car_passenger" depart="56.00" departLane="best" from="1175565378" to="1175574227"/>
    <trip id="car57" type="car_passenger" depart="57.00" departLane="best" from="1175572280" to="821527095"/>
    <trip id="car58" type="car_passenger" depart="58.00" departLane="best" from="1175567130" to="1175565133"/>
    <trip id="car59" type="car_passenger" depart="59.00" departLane="best" from="1175574353" to="1175572851"/>
    <trip id="car60" type="car_passenger" depart="60.00" departLane="best" from="-1002548498" to="1175575145"/>
    <trip id="car61" type="car_passenger" depart="61.00" departLane="best" from="1175565678" to="1175565096"/>
    <trip id="car62" type="car_passenger" depart="62.00" departLane="best" from="1175565263" to="1175566638"/>
    <trip id="car63" type="car_passenger" depart="63.00" departLane="best" from="-571373316" to="821221640"/>
    <trip id="car64" type="car_passenger" depart="64.00" departLane="best" from="-219798598" to="824636721"/>
    <trip id="car65" type="car_passenger" depart="65.00" departLane="best" from="1175572715" to="1175568739"/>
    <trip id="car66" type="car_passenger" depart="66.00" departLane="best" from="1175572798" to="1175564636"/>
    <trip id="car67" type="car_passenger" depart="67.00" departLane="best" from="1175568296" to="1175575665"/>
    <trip id="car68" type="car_passenger" depart="68.00" departLane="best" from="1175571107" to="1175576657"/>
    <trip id="car69" type="car_passenger" depart="69.00" departLane="best" from="1175576796" to="-821885327"/>
    <trip id="car70" type="car_passenger" depart="70.00" departLane="best" from="1175567602" to="1175575071"/>
    <trip id="car71" type="car_passenger" depart="71.00" departLane="best" from="1175573595" to="1175566843"/>
    <trip id="car72" type="car_passenger" depart="72.00" departLane="best" from="1175575955" to="1175563948"/>
    <trip id="car73" type="car_passenger" depart="73.00" departLane="best" from="1175575834" to="1175566173"/>
    <trip id="car74" type="car_passenger" depart="74.00" departLane="best" from="1175569014" to="391058614"/>
    <trip id="car75" type="car_passenger" depart="75.00" departLane="best" from="1175572737" to="1175569578"/>
    <trip id="car76" type="car_passenger" depart="76.00" departLane="best" from="1175576513" to="1175567337"/>
    <trip id="car77" type="car_passenger" depart="77.00" departLane="best" from="1175566191" to="824301590"/>
    <trip id="car78" type="car_passenger" depart="78.00" departLane="best" from="1175572115" to="1175572653"/>
    <trip id="car79" type="car_passenger" depart="79.00" departLane="best" from="1175565513" to="824658532"/>
    <trip id="car80" type="car_passenger" depart="80.00" departLane="best" from="821504316" to="1175568900"/>
    <trip id="car81" type="car_passenger" depart="81.00" departLane="best" from="1175575213" to="1175566237"/>
    <trip id="car82" type="car_passenger" depart="82.00" departLane="best" from="-89280713" to="1175567991"/>
    <trip id="car83" type="car_passenger" depart="83.00" departLane="best" from="1175566080" to="571376701"/>
    <trip id="car84" type="car_passenger" depart="84.00" departLane="best" departSpeed="max" from="-219798597" to="1175575023"/>
    <trip id="car85" type="car_passenger" depart="85.00" departLane="best" from="1175568728" to="1175563051"/>
    <trip id="car86" type="car_passenger" depart="86.00" departLane="best" from="1175568237" to="1175567400"/>
    <trip id="car87" type="car_passenger" depart="87.00" departLane="best" from="1175572836" to="1175571998"/>
    <trip id="car88" type="car_passenger" depart="88.00" departLane="best" from="1175575036" to="1175570573"/>
    <trip id="car89" type="car_passenger" depart="89.00" departLane="best" from="1175566207" to="98354380"/>
    <trip id="car90" type="car_passenger" depart="90.00" departLane="best" from="1175564350" to="1175568474"/>
    <trip id="car91" type="car_passenger" depart="91.00" departLane="best" from="1175567540" to="1175571122"/>
    <trip id="car92" type="car_passenger" depart="92.00" departLane="best" from="1175572755" to="1175567202"/>
    <trip id="car93" type="car_passenger" depart="93.00" departLane="best" from="1175565553" to="1175574673"/>
    <trip id="car94" type="car_passenger" depart="94.00" departLane="best" departSpeed="max" from="1175566474" to="1175568274"/>
    <trip id="car95" type="car_passenger" depart="95.00" departLane="best" from="1175571782" to="1175575056"/>
    <trip id="car96" type="car_passenger" depart="96.00" departLane="best" from="1175570768" to="108333890"/>
    <trip id="car97" type="car_passenger" depart="97.00" departLane="best" from="1175563048" to="824669577"/>
    <trip id="car98" type="car_passenger" depart="98.00" departLane="best" from="1175567958" to="1175570818"/>
    <trip id="car99" type="car_passenger" depart="99.00" departLane="best" from="1175572444" to="824671349"/>
    <trip id="car100" type="car_passenger" depart="100.00" departLane="best" from="1175571031" to="821883634"/>
    <trip id="car101" type="car_passenger" depart="101.00" departLane="best" from="1175567463" to="1175576218"/>
    <trip id="car102" type="car_passenger" depart="102.00" departLane="best" from="1175563615" to="1175571392"/>
    <trip id="car103" type="car_passenger" depart="103.00" departLane="best" from="1175570941" to="1175569226"/>
    <trip id="car104" type="car_passenger" depart="104.00" departLane="best" from="1175569918" to="1175576139"/>
    <trip id="car105" type="car_passenger" depart="105.00" departLane="best" departSpeed="max" from="-572102401" to="1175576657"/>
    <trip id="car106" type="car_passenger" depart="106.00" departLane="best" from="1175568993" to="1175573511"/>
    <trip id="car107" type="car_passenger" depart="107.00" departLane="best" from="1175567237" to="-107286378"/>
    <trip id="car108" type="car_passenger" depart="108.00" departLane="best" from="1175564510" to="1175565378"/>
    <trip id="car109" type="car_passenger" depart="109.00" departLane="best" from="1175566878" to="1175563268"/>
    <trip id="car110" type="car_passenger" depart="110.00" departLane="best" from="1175568749" to="1175567735"/>
    <trip id="car111" type="car_passenger" depart="111.00" departLane="best" from="1175567325" to="1175571173"/>
    <trip id="car112" type="car_passenger" depart="112.00" departLane="best" from="1175569205" to="1175564254"/>
    <trip id="car113" type="car_passenger" depart="113.00" departLane="best" from="1175566294" to="1175575712"/>
    <trip id="car114" type="car_passenger" depart="114.00" departLane="best" from="1175566883" to="1175569196"/>
    <trip id="car115" type="car_passenger" depart="115.00" departLane="best" from="1175574429" to="-823928973"/>
    <trip id="car116" type="car_passenger" depart="116.00" departLane="best" from="1175563659" to="1175564994"/>
    <trip id="car117" type="car_passenger" depart="117.00" departLane="best" from="1175575007" to="-88371824"/>
    <trip id="car118" type="car_passenger" depart="118.00" departLane="best" from="1175565757" to="-247536022"/>
    <trip id="car119" type="car_passenger" depart="119.00" departLane="best" from="1175565118" to="107286368"/>
    <trip id="car120" type="car_passenger" depart="120.00" departLane="best" from="1175563130" to="1175567875"/>
    <trip id="car121" type="car_passenger" depart="121.00" departLane="best" from="1175577140" to="1175563049"/>
    <trip id="car122" type="car_passenger" depart="122.00" departLane="best" from="1175564631" to="-824600074"/>
    <trip id="car123" type="car_passenger" depart="123.00" departLane="best" from="1175569725" to="1175564452"/>
    <trip id="car124" type="car_passenger" depart="124.00" departLane="best" departSpeed="max" from="1175566161" to="1175572520"/>
    <trip id="car125" type="car_passenger" depart="125.00" departLane="best" from="1175564808" to="571383726"/>
    <trip id="car126" type="car_passenger" depart="126.00" departLane="best" from="1175574654" to="1175563312"/>
    <trip id="car127" type="car_passenger" depart="127.00" departLane="best" departSpeed="max" from="1175564762" to="1175564268"/>
    <trip id="car128" type="car_passenger" depart="128.00" departLane="best" from="633067100" to="-1007590625"/>
    <trip id="car129" type="car_passenger" depart="129.00" departLane="best" from="1175571278" to="1175566417"/>
    <trip id="car130" type="car_passenger" depart="130.00" departLane="best" from="1175569078" to="78335902"/>
    <trip id="car131" type="car_passenger" depart="131.00" departLane="best" from="571426126" to="1175569378"/>
    <trip id="car132" type="car_passenger" depart="132.00" departLane="best" from="1175567823" to="1175566274"/>
    <trip id="car133" type="car_passenger" depart="133.00" departLane="best" from="1175563089" to="572147143"/>
    <trip id="car134" type="car_passenger" depart="134.00" departLane="best" from="1175575811" to="1175565285"/>
    <trip id="car135" type="car_passenger" depart="135.00" departLane="best" from="79536652" to="1175575118"/>
    <trip id="car136" type="car_passenger" depart="136.00" departLane="best" from="1175563905" to="1175569087"/>
    <trip id="car137" type="car_passenger" depart="137.00" departLane="best" from="1175568949" to="1175565773"/>
    <trip id="car138" type="car_passenger" depart="138.00" departLane="best" from="1175569160" to="435398052"/>
    <trip id="car139" type="car_passenger" depart="139.00" departLane="best" from="1175572920" to="580612251"/>
    <trip id="car140" type="car_passenger" depart="140.00" departLane="best" from="1175563178" to="1175573087"/>
    <trip id="car141" type="car_passenger" depart="141.00" departLane="best" from="1175571264" to="1175568284"/>
    <trip id="car142" type="car_passenger" depart="142.00" departLane="best" from="1175564531" to="1175572255"/>
    <trip id="car143" type="car_passenger" depart="143.00" departLane="best" from="1175571867" to="1175564722"/>
    <trip id="car144" type="car_passenger" depart="144.00" departLane="best" departSpeed="max" from="1175564546" to="1175572941"/>
    <trip id="car145" type="car_passenger" depart="145.00" departLane="best" from="78335843" to="1175563657"/>
    <trip id="car146" type="car_passenger" depart="146.00" departLane="best" from="-824620502" to="1175574067"/>
    <trip id="car147" type="car_passenger" depart="147.00" departLane="best" from="1175564569" to="824650240"/>
    <trip id="car148" type="car_passenger" depart="148.00" departLane="best" from="1175573712" to="-571393191"/>
    <trip id="car149" type="car_passenger" depart="149.00" departLane="best" from="1175573716" to="1175568065"/>
    <trip id="car150" type="car_passenger" depart="150.00" departLane="best" from="1175563727" to="1175565621"/>
    <trip id="car151" type="car_passenger" depart="151.00" departLane="best" from="1175576023" to="-822235834"/>
    <trip id="car152" type="car_passenger" depart="152.00" departLane="best" from="247462374" to="1175564127"/>
    <trip id="car153" type="car_passenger" depart="153.00" departLane="best" departSpeed="max" from="1175576111" to="1175568265"/>
    <trip id="car154" type="car_passenger" depart="154.00" departLane="best" departSpeed="max" from="-79537219" to="1175567558"/>
    <trip id="car155" type="car_passenger" depart="155.00" departLane="best" from="1175573885" to="572040847"/>
    <trip id="car156" type="car_passenger" depart="156.00" departLane="best" from="1175572736" to="1175565950"/>
    <trip id="car157" type="car_passenger" depart="157.00" departLane="best" from="1175572499" to="1175567932"/>
    <trip id="car158" type="car_passenger" depart="158.00" departLane="best" from="1175569444" to="-824679374"/>
    <trip id="car159" type="car_passenger" depart="159.00" departLane="best" from="1175565741" to="1175569478"/>
    <trip id="car160" type="car_passenger" depart="160.00" departLane="best" from="1175567705" to="1175565976"/>
    <trip id="car161" type="car_passenger" depart="161.00" departLane="best" from="1175567137" to="1175575636"/>
    <trip id="car162" type="car_passenger" depart="162.00" departLane="best" from="1175573396" to="1175568858"/>
    <trip id="car163" type="car_passenger" depart="163.00" departLane="best" from="-823899433" to="79091819"/>
    <trip id="car164" type="car_passenger" depart="164.00" departLane="best" from="1175563711" to="1175570997"/>
    <trip id="car165" type="car_passenger" depart="165.00" departLane="best" from="1175568950" to="1175573051"/>
    <trip id="car166" type="car_passenger" depart="166.00" departLane="best" from="1175572222" to="1175569215"/>
    <trip id="car167" type="car_passenger" depart="167.00" departLane="best" from="1175563025" to="1175575700"/>
    <trip id="car168" type="car_passenger" depart="168.00" departLane="best" from="1175575428" to="1175575544"/>
    <trip id="car169" type="car_passenger" depart="169.00" departLane="best" departSpeed="max" from="1175566415" to="1175576026"/>
    <trip id="car170" type="car_passenger" depart="170.00" departLane="best" from="1175567431" to="572145000"/>
    <trip id="car171" type="car_passenger" depart="171.00" departLane="best" from="1175574303" to="823517068"/>
    <trip id="car172" type="car_passenger" depart="172.00" departLane="best" from="824600074" to="1175570362"/>
    <trip id="car173" type="car_passenger" depart="173.00" departLane="best" departSpeed="max" from="572105056" to="1175565903"/>
    <trip id="car174" type="car_passenger" depart="174.00" departLane="best" from="1175567927" to="1175570608"/>
    <trip id="car175" type="car_passenger" depart="175.00" departLane="best" from="1175567549" to="-824671894"/>
    <trip id="car176" type="car_passenger" depart="176.00" departLane="best" from="1175576993" to="1175575158"/>
    <trip id="car177" type="car_passenger" depart="177.00" departLane="best" from="-821883636" to="1175566940"/>
    <trip id="car178" type="car_passenger" depart="178.00" departLane="best" from="1175563149" to="1175563574"/>
    <trip id="car179" type="car_passenger" depart="179.00" departLane="best" from="1175575715" to="1175572258"/>
    <trip id="car180" type="car_passenger" depart="180.00" departLane="best" from="1175567165" to="1175569937"/>
    <trip id="car181" type="car_passenger" depart="181.00" departLane="best" from="1175574634" to="915729876"/>
    <trip id="car182" type="car_passenger" depart="182.00" departLane="best" from="1175565074" to="1175573556"/>
    <trip id="car183" type="car_passenger" depart="183.00" departLane="best" from="1175569909" to="1175572514"/>
    <trip id="car184" type="car_passenger" depart="184.00" departLane="best" from="1175577142" to="1175570776"/>
    <trip id="car185" type="car_passenger" depart="185.00" departLane="best" from="1175563085" to="824638102"/>
    <trip id="car186" type="car_passenger" depart="186.00" departLane="best" from="1175574006" to="1175568397"/>
    <trip id="car187" type="car_passenger" depart="187.00" departLane="best" from="1175575653" to="1175564894"/>
    <trip id="car188" type="car_passenger" depart="188.00" departLane="best" from="1175566517" to="1175565349"/>
    <trip id="car189" type="car_passenger" depart="189.00" departLane="best" from="1175567185" to="1175564208"/>
    <trip id="car190" type="car_passenger" depart="190.00" departLane="best" from="1175577009" to="-824625191"/>
    <trip id="car191" type="car_passenger" depart="191.00" departLane="best" departSpeed="max" from="-571393285" to="79536296"/>
    <trip id="car192" type="car_passenger" depart="192.00" departLane="best" from="1175575549" to="1175576394"/>
    <trip id="car193" type="car_passenger" depart="193.00" departLane="best" from="1175576171" to="1175574407"/>
    <trip id="car194" type="car_passenger" depart="194.00" departLane="best" from="1175567067" to="1175568066"/>
    <trip id="car195" type="car_passenger" depart="195.00" departLane="best" from="550629591" to="1175564697"/>
    <trip id="car196" type="car_passenger" depart="196.00" departLane="best" from="1175572401" to="1175563738"/>
    <trip id="car197" type="car_passenger" depart="197.00" departLane="best" from="247462400" to="78046724"/>
    <trip id="car198" type="car_passenger" depart="198.00" departLane="best" from="-107286426" to="1175565808"/>
    <trip id="car199" type="car_passenger" depart="199.00" departLane="best" departSpeed="max" from="1175567336" to="1175573879"/>
    <trip id="car200" type="car_passenger" depart="200.00" departLane="best" from="1175575765" to="1175568331"/>
    <trip id="car201" type="car_passenger" depart="201.00" departLane="best" departSpeed="max" from="-824618444" to="79535875"/>
    <trip id="car202" type="car_passenger" depart="202.00" departLane="best" from="1175573420" to="1175576390"/>
    <trip id="car203" type="car_passenger" depart="203.00" departLane="best" departSpeed="max" from="-821891980" to="1175576732"/>
    <trip id="car204" type="car_passenger" depart="204.00" departLane="best" from="1175564125" to="821901176"/>
    <trip id="car205" type="car_passenger" depart="205.00" departLane="best" from="1175572269" to="1175563650"/>
    <trip id="car206" type="car_passenger" depart="206.00" departLane="best" from="1175570309" to="1175570211"/>
    <trip id="car207" type="car_passenger" depart="207.00" departLane="best" departSpeed="max" from="-824911034" to="1175563772"/>
    <trip id="car208" type="car_passenger" depart="208.00" departLane="best" departSpeed="max" from="1175567270" to="1175571151"/>
    <trip id="car209" type="car_passenger" depart="209.00" departLane="best" from="1175568689" to="571386502"/>
    <trip id="car210" type="car_passenger" depart="210.00" departLane="best" departSpeed="max" from="1175565005" to="1175576326"/>
    <trip id="car211" type="car_passenger" depart="211.00" departLane="best" from="1175574286" to="1175573514"/>
    <trip id="car212" type="car_passenger" depart="212.00" departLane="best" from="1175566778" to="1175573378"/>
    <trip id="car213" type="car_passenger" depart="213.00" departLane="best" from="1175575641" to="1175568069"/>
    <trip id="car214" type="car_passenger" depart="214.00" departLane="best" from="78046819" to="1175574046"/>
    <trip id="car215" type="car_passenger" depart="215.00" departLane="best" from="1175572549" to="1175566494"/>
    <trip id="car216" type="car_passenger" depart="216.00" departLane="best" from="1175567191" to="78046863"/>
    <trip id="car217" type="car_passenger" depart="217.00" departLane="best" from="-824678252" to="1175565680"/>
    <trip id="car218" type="car_passenger" depart="218.00" departLane="best" from="1175570035" to="107286403"/>
    <trip id="car219" type="car_passenger" depart="219.00" departLane="best" from="1175576855" to="580612251"/>
    <trip id="car220" type="car_passenger" depart="220.00" departLane="best" from="1175566298" to="1175571511"/>
    <trip id="car221" type="car_passenger" depart="221.00" departLane="best" from="1175575869" to="1175563563"/>
    <trip id="car222" type="car_passenger" depart="222.00" departLane="best" from="1175568179" to="1175568478"/>
    <trip id="car223" type="car_passenger" depart="223.00" departLane="best" from="-835899384" to="571428721"/>
    <trip id="car224" type="car_passenger" depart="224.00" departLane="best" departSpeed="max" from="1175563302" to="1175572529"/>
    <trip id="car225" type="car_passenger" depart="225.00" departLane="best" from="1175576377" to="96319740"/>
    <trip id="car226" type="car_passenger" depart="226.00" departLane="best" from="1175568309" to="1175575214"/>
    <trip id="car227" type="car_passenger" depart="227.00" departLane="best" from="1175564846" to="1175573708"/>
    <trip id="car228" type="car_passenger" depart="228.00" departLane="best" from="-79536749" to="1175567361"/>
    <trip id="car229" type="car_passenger" depart="229.00" departLane="best" from="1175570307" to="1175568244"/>
    <trip id="car230" type="car_passenger" depart="230.00" departLane="best" from="1175564653" to="79536517"/>
    <trip id="car231" type="car_passenger" depart="231.00" departLane="best" from="1175567853" to="1175566597"/>
    <trip id="car232" type="car_passenger" depart="232.00" departLane="best" from="1175564763" to="1175562782"/>
    <trip id="car233" type="car_passenger" depart="233.00" departLane="best" from="1175573373" to="1175567856"/>
    <trip id="car234" type="car_passenger" depart="234.00" departLane="best" from="1175574560" to="1175568026"/>
    <trip id="car235" type="car_passenger" depart="235.00" departLane="best" from="1175565282" to="1175568945"/>
    <trip id="car236" type="car_passenger" depart="236.00" departLane="best" from="-824669571" to="1175563443"/>
    <trip id="car237" type="car_passenger" depart="237.00" departLane="best" from="1175573520" to="1175567656"/>
    <trip id="car238" type="car_passenger" depart="238.00" departLane="best" from="1175564784" to="1175565819"/>
    <trip id="car239" type="car_passenger" depart="239.00" departLane="best" from="1175568155" to="1175565357"/>
    <trip id="car240" type="car_passenger" depart="240.00" departLane="best" from="-79091810" to="1175572968"/>
    <trip id="car241" type="car_passenger" depart="241.00" departLane="best" from="1175576562" to="1175568025"/>
    <trip id="car242" type="car_passenger" depart="242.00" departLane="best" from="1175563557" to="1175575481"/>
    <trip id="car243" type="car_passenger" depart="243.00" departLane="best" from="1175572934" to="1175573350"/>
    <trip id="car244" type="car_passenger" depart="244.00" departLane="best" from="1175573933" to="1175571820"/>