<?xml version="1.0" encoding="UTF-8"?>

<!-- generated on 2023-07-01 23:21:38.136559 by randomTrips.py v1_18_0+0023-ef591d47046
<configuration>
    <duarouter-routing-threads value="4"/>
    <end value="1000.0"/>
    <fringe-start-attributes value="departSpeed=&quot;max&quot;"/>
    <max-distance value="6000.0"/>
    <net-file value="pasto.net.xml.gz"/>
    <period value="1.0"/>
    <random value="True"/>
    <remove-loops value="True"/>
    <route-file value="pasto.bicycle.rou.xml"/>
    <trip-attributes value="departLane=&quot;best&quot;"/>
    <output-trip-file value="pasto.bicycle.trips.xml"/>
    <prefix value="bik"/>
    <validate value="True"/>
    <vclass value="bicycle"/>
    <vehicle-class value="bicycle"/>
    <via-edge-types value="highway.motorway,highway.motorway_link,highway.trunk_link,highway.primary_link,highway.secondary_link,highway.tertiary_link"/>
</configuration>
-->

<!-- generated on 2023-07-01 23:21:30 by Eclipse SUMO duarouter Version v1_18_0+0023-ef591d47046
<configuration xmlns:xsi="http://www.w3.org/2001/XMLSchema-instance" xsi:noNamespaceSchemaLocation="http://sumo.dlr.de/xsd/duarouterConfiguration.xsd">

    <input>
        <net-file value="pasto.net.xml.gz"/>
        <route-files value="pasto.bicycle.trips.xml"/>
    </input>

    <output>
        <output-file value="pasto.bicycle.trips.xml.tmp"/>
        <alternatives-output value="NUL"/>
        <write-trips value="true"/>
    </output>

    <processing>
        <remove-loops value="true"/>
        <routing-threads value="4"/>
    </processing>

    <time>
        <begin value="0.0"/>
        <end value="1000.0"/>
    </time>

    <report>
        <no-warnings value="true"/>
        <ignore-errors value="true"/>
        <no-step-log value="true"/>
    </report>

</configuration>
-->

<routes xmlns:xsi="http://www.w3.org/2001/XMLSchema-instance" xsi:noNamespaceSchemaLocation="http://sumo.dlr.de/xsd/routes_file.xsd">
    <vType id="bik_bicycle" vClass="bicycle"/>
    <trip id="bik0" type="bik_bicycle" depart="0.00" departLane="best" from="1175567085" to="1175575492"/>
    <trip id="bik1" type="bik_bicycle" depart="1.00" departLane="best" from="1175565479" to="1175568459"/>
    <trip id="bik2" type="bik_bicycle" depart="2.00" departLane="best" from="1175567366" to="1007998747"/>
    <trip id="bik3" type="bik_bicycle" depart="3.00" departLane="best" from="1175573183" to="1175564442"/>
    <trip id="bik4" type="bik_bicycle" depart="4.00" departLane="best" from="1175565771" to="1175568520"/>
    <trip id="bik5" type="bik_bicycle" depart="5.00" departLane="best" from="1175570859" to="1146828866"/>
    <trip id="bik6" type="bik_bicycle" depart="6.00" departLane="best" from="1175564932" to="1175565225"/>
    <trip id="bik7" type="bik_bicycle" depart="7.00" departLane="best" from="1175572543" to="1175573630"/>
    <trip id="bik8" type="bik_bicycle" depart="8.00" departLane="best" from="1175568310" to="1175573416"/>
    <trip id="bik9" type="bik_bicycle" depart="9.00" departLane="best" from="1175573111" to="1175573535"/>
    <trip id="bik10" type="bik_bicycle" depart="10.00" departLane="best" from="1175569899" to="1175567977"/>
    <trip id="bik11" type="bik_bicycle" depart="11.00" departLane="best" from="1175574397" to="1175564489"/>
    <trip id="bik12" type="bik_bicycle" depart="12.00" departLane="best" from="1175573414" to="1175574591"/>
    <trip id="bik13" type="bik_bicycle" depart="13.00" departLane="best" departSpeed="max" from="-572015190" to="1175564382"/>
    <trip id="bik14" type="bik_bicycle" depart="14.00" departLane="best" from="1175563384" to="-891054332"/>
    <trip id="bik15" type="bik_bicycle" depart="15.00" departLane="best" from="1175570866" to="1175564694"/>
    <trip id="bik16" type="bik_bicycle" depart="16.00" departLane="best" from="219798598" to="1175571317"/>
    <trip id="bik17" type="bik_bicycle" depart="17.00" departLane="best" from="1175565609" to="1175565994"/>
    <trip id="bik18" type="bik_bicycle" depart="18.00" departLane="best" from="1175568821" to="391058614"/>
    <trip id="bik19" type="bik_bicycle" depart="19.00" departLane="best" from="1175565361" to="-915505849"/>
    <trip id="bik21" type="bik_bicycle" depart="21.00" departLane="best" from="1175564635" to="1175571003"/>
    <trip id="bik22" type="bik_bicycle" depart="22.00" departLane="best" from="1175569695" to="1008840985"/>
    <trip id="bik23" type="bik_bicycle" depart="23.00" departLane="best" departSpeed="max" from="1175564933" to="1175565875"/>
    <trip id="bik24" type="bik_bicycle" depart="24.00" departLane="best" from="1175565592" to="1175568858"/>
    <trip id="bik25" type="bik_bicycle" depart="25.00" departLane="best" from="1175573116" to="-571340295"/>
    <trip id="bik26" type="bik_bicycle" depart="26.00" departLane="best" from="1175562821" to="1175575779"/>
    <trip id="bik27" type="bik_bicycle" depart="27.00" departLane="best" from="1175575103" to="1175567800"/>
    <trip id="bik28" type="bik_bicycle" depart="28.00" departLane="best" from="1175568514" to="1175564203"/>
    <trip id="bik29" type="bik_bicycle" depart="29.00" departLane="best" from="1175570189" to="695866300"/>
    <trip id="bik30" type="bik_bicycle" depart="30.00" departLane="best" from="1175565976" to="1175570651"/>
    <trip id="bik31" type="bik_bicycle" depart="31.00" departLane="best" from="1175565604" to="1175564126"/>
    <trip id="bik32" type="bik_bicycle" depart="32.00" departLane="best" departSpeed="max" from="88371824" to="247549484"/>
    <trip id="bik33" type="bik_bicycle" depart="33.00" departLane="best" from="1175564526" to="821236271"/>
    <trip id="bik34" type="bik_bicycle" depart="34.00" departLane="best" from="1175573630" to="1175570473"/>
    <trip id="bik35" type="bik_bicycle" depart="35.00" departLane="best" departSpeed="max" from="-821880832" to="-824308950"/>
    <trip id="bik36" type="bik_bicycle" depart="36.00" departLane="best" from="-571431284" to="1175568981"/>
    <trip id="bik37" type="bik_bicycle" depart="37.00" departLane="best" from="1175571107" to="1175569793"/>
    <trip id="bik38" type="bik_bicycle" depart="38.00" departLane="best" from="1175574566" to="1175569445"/>
    <trip id="bik39" type="bik_bicycle" depart="39.00" departLane="best" from="1175577127" to="1175577050"/>
    <trip id="bik40" type="bik_bicycle" depart="40.00" departLane="best" departSpeed="max" from="1175577077" to="78518730"/>
    <trip id="bik41" type="bik_bicycle" depart="41.00" departLane="best" from="1175573755" to="1175570048"/>
    <trip id="bik42" type="bik_bicycle" depart="42.00" departLane="best" from="1175576580" to="1175572964"/>
    <trip id="bik43" type="bik_bicycle" depart="43.00" departLane="best" from="1175573070" to="1175568477"/>
    <trip id="bik44" type="bik_bicycle" depart="44.00" departLane="best" from="1175570541" to="1175575153"/>
    <trip id="bik45" type="bik_bicycle" depart="45.00" departLane="best" from="1175565629" to="1175576161"/>
    <trip id="bik46" type="bik_bicycle" depart="46.00" departLane="best" departSpeed="max" from="-821229038" to="1175568860"/>
    <trip id="bik47" type="bik_bicycle" depart="47.00" departLane="best" from="1175572794" to="1175565272"/>
    <trip id="bik48" type="bik_bicycle" depart="48.00" departLane="best" from="1175566319" to="1175565529"/>
    <trip id="bik49" type="bik_bicycle" depart="49.00" departLane="best" from="-632000857" to="1175573690"/>
    <trip id="bik50" type="bik_bicycle" depart="50.00" departLane="best" from="1175567937" to="1175570471"/>
    <trip id="bik51" type="bik_bicycle" depart="51.00" departLane="best" from="1175568113" to="79536907"/>
    <trip id="bik52" type="bik_bicycle" depart="52.00" departLane="best" from="1175574449" to="1175568973"/>
    <trip id="bik54" type="bik_bicycle" depart="54.00" departLane="best" from="1175569342" to="1175565645"/>
    <trip id="bik55" type="bik_bicycle" depart="55.00" departLane="best" from="1175576762" to="1175563340"/>
    <trip id="bik56" type="bik_bicycle" depart="56.00" departLane="best" from="1175575481" to="1175572142"/>
    <trip id="bik57" type="bik_bicycle" depart="57.00" departLane="best" from="1175573595" to="1175574526"/>
    <trip id="bik58" type="bik_bicycle" depart="58.00" departLane="best" from="1175575445" to="1175569141"/>
    <trip id="bik59" type="bik_bicycle" depart="59.00" departLane="best" departSpeed="max" from="1175564806" to="1175565951"/>
    <trip id="bik60" type="bik_bicycle" depart="60.00" departLane="best" from="1175569653" to="1175568093"/>
    <trip id="bik61" type="bik_bicycle" depart="61.00" departLane="best" from="1175562887" to="1175564648"/>
    <trip id="bik62" type="bik_bicycle" depart="62.00" departLane="best" from="1175568930" to="1175564875"/>
    <trip id="bik63" type="bik_bicycle" depart="63.00" departLane="best" from="1175567152" to="1175566325"/>
    <trip id="bik64" type="bik_bicycle" depart="64.00" departLane="best" from="1175567512" to="268532189"/>
    <trip id="bik65" type="bik_bicycle" depart="65.00" departLane="best" from="1175566146" to="1175564079"/>
    <trip id="bik66" type="bik_bicycle" depart="66.00" departLane="best" from="1175566904" to="1175576960"/>
    <trip id="bik67" type="bik_bicycle" depart="67.00" departLane="best" from="1175574445" to="1175573085"/>
    <trip id="bik68" type="bik_bicycle" depart="68.00" departLane="best" from="1175568966" to="1175573784"/>
    <trip id="bik69" type="bik_bicycle" depart="69.00" departLane="best" from="1175568309" to="1175574951"/>
    <trip id="bik70" type="bik_bicycle" depart="70.00" departLane="best" from="1175570369" to="821951591"/>
    <trip id="bik71" type="bik_bicycle" depart="71.00" departLane="best" from="48205263" to="1175571442"/>
    <trip id="bik72" type="bik_bicycle" depart="72.00" departLane="best" from="1175570983" to="1175574153"/>
    <trip id="bik73" type="bik_bicycle" depart="73.00" departLane="best" from="821914206" to="1175571071"/>
    <trip id="bik74" type="bik_bicycle" depart="74.00" departLane="best" from="633036937" to="1175562993"/>
    <trip id="bik75" type="bik_bicycle" depart="75.00" departLane="best" departSpeed="max" from="1175564770" to="1175569624"/>
    <trip id="bik76" type="bik_bicycle" depart="76.00" departLane="best" from="1175565609" to="1175573824"/>
    <trip id="bik77" type="bik_bicycle" depart="77.00" departLane="best" from="1175571019" to="1175569445"/>
    <trip id="bik78" type="bik_bicycle" depart="78.00" departLane="best" from="1175570980" to="1175569836"/>
    <trip id="bik79" type="bik_bicycle" depart="79.00" departLane="best" from="1175569488" to="1175574305"/>
    <trip id="bik80" type="bik_bicycle" depart="80.00" departLane="best" from="1175568682" to="1175566141"/>
    <trip id="bik81" type="bik_bicycle" depart="81.00" departLane="best" from="1175575827" to="1175569695"/>
    <trip id="bik82" type="bik_bicycle" depart="82.00" departLane="best" from="1175574863" to="1175576501"/>
    <trip id="bik84" type="bik_bicycle" depart="84.00" departLane="best" from="1175571838" to="1175563707"/>
    <trip id="bik85" type="bik_bicycle" depart="85.00" departLane="best" from="1175565591" to="1175573840"/>
    <trip id="bik86" type="bik_bicycle" depart="86.00" departLane="best" from="1175565358" to="1175568381"/>
    <trip id="bik87" type="bik_bicycle" depart="87.00" departLane="best" from="1175564837" to="1175567700"/>
    <trip id="bik89" type="bik_bicycle" depart="89.00" departLane="best" from="1175573509" to="1175566206"/>
    <trip id="bik90" type="bik_bicycle" depart="90.00" departLane="best" from="1175569391" to="1175566739"/>
    <trip id="bik91" type="bik_bicycle" depart="91.00" departLane="best" from="108452904" to="1175570759"/>
    <trip id="bik92" type="bik_bicycle" depart="92.00" departLane="best" from="1175562833" to="1175566274"/>
    <trip id="bik93" type="bik_bicycle" depart="93.00" departLane="best" from="-79537133" to="1175574097"/>
    <trip id="bik94" type="bik_bicycle" depart="94.00" departLane="best" from="1175573974" to="1175565458"/>
    <trip id="bik95" type="bik_bicycle" depart="95.00" departLane="best" from="1175569668" to="1175570439"/>
    <trip id="bik96" type="bik_bicycle" depart="96.00" departLane="best" from="1175576863" to="1175565192"/>
    <trip id="bik97" type="bik_bicycle" depart="97.00" departLane="best" from="1175570279" to="1175571719"/>
    <trip id="bik98" type="bik_bicycle" depart="98.00" departLane="best" from="1175569593" to="1175566419"/>
    <trip id="bik99" type="bik_bicycle" depart="99.00" departLane="best" departSpeed="max" from="-571374726" to="1175574927"/>
    <trip id="bik100" type="bik_bicycle" depart="100.00" departLane="best" from="1175570779" to="1175565924"/>
    <trip id="bik101" type="bik_bicycle" depart="101.00" departLane="best" from="1175569381" to="1175565875"/>
    <trip id="bik103" type="bik_bicycle" depart="103.00" departLane="best" from="1175576216" to="-48235659"/>
    <trip id="bik104" type="bik_bicycle" depart="104.00" departLane="best" from="1175569070" to="79091650"/>
    <trip id="bik105" type="bik_bicycle" depart="105.00" departLane="best" from="1175567134" to="571395008"/>
    <trip id="bik106" type="bik_bicycle" depart="106.00" departLane="best" from="1175564119" to="1175572037"/>
    <trip id="bik107" type="bik_bicycle" depart="107.00" departLane="best" from="-571431283" to="1175568413"/>
    <trip id="bik109" type="bik_bicycle" depart="109.00" departLane="best" from="1175563030" to="1175575321"/>
    <trip id="bik110" type="bik_bicycle" depart="110.00" departLane="best" from="1175570540" to="1175565402"/>
    <trip id="bik111" type="bik_bicycle" depart="111.00" departLane="best" from="1175564262" to="1175564689"/>
    <trip id="bik112" type="bik_bicycle" depart="112.00" departLane="best" from="1175575107" to="1175572495"/>
    <trip id="bik113" type="bik_bicycle" depart="113.00" departLane="best" from="1175574265" to="1175573296"/>
    <trip id="bik114" type="bik_bicycle" depart="114.00" departLane="best" from="1175576234" to="1175573999"/>
    <trip id="bik115" type="bik_bicycle" depart="115.00" departLane="best" from="1175570929" to="107286310"/>
    <trip id="bik116" type="bik_bicycle" depart="116.00" departLane="best" from="1175570197" to="1175570862"/>
    <trip id="bik117" type="bik_bicycle" depart="117.00" departLane="best" from="824672880" to="1175565957"/>
    <trip id="bik118" type="bik_bicycle" depart="118.00" departLane="best" from="-540970685" to="1175576347"/>
    <trip id="bik119" type="bik_bicycle" depart="119.00" departLane="best" from="1175574406" to="1175576881"/>
    <trip id="bik120" type="bik_bicycle" depart="120.00" departLane="best" from="1175565108" to="1175575513"/>
    <trip id="bik121" type="bik_bicycle" depart="121.00" departLane="best" from="1175567656" to="1175575738"/>
    <trip id="bik122" type="bik_bicycle" depart="122.00" departLane="best" from="-107286395" to="1175575892"/>
    <trip id="bik123" type="bik_bicycle" depart="123.00" departLane="best" from="1175567535" to="-821906528"/>
    <trip id="bik124" type="bik_bicycle" depart="124.00" departLane="best" from="1175572739" to="1175567879"/>
    <trip id="bik125" type="bik_bicycle" depart="125.00" departLane="best" from="-48268645" to="1175564329"/>
    <trip id="bik126" type="bik_bicycle" depart="126.00" departLane="best" from="1175565077" to="1175567256"/>
    <trip id="bik127" type="bik_bicycle" depart="127.00" departLane="best" from="1175576710" to="1175563594"/>
    <trip id="bik128" type="bik_bicycle" depart="128.00" departLane="best" from="1175575428" to="1175575103"/>
    <trip id="bik129" type="bik_bicycle" depart="129.00" departLane="best" from="1175564544" to="1175574830"/>
    <trip id="bik130" type="bik_bicycle" depart="130.00" departLane="best" from="821626697" to="1175571007"/>
    <trip id="bik131" type="bik_bicycle" depart="131.00" departLane="best" from="1175566977" to="-821623980"/>
    <trip id="bik132" type="bik_bicycle" depart="132.00" departLane="best" from="1175576230" to="1175568451"/>
    <trip id="bik133" type="bik_bicycle" depart="133.00" departLane="best" from="1175575035" to="1175563149"/>
    <trip id="bik134" type="bik_bicycle" depart="134.00" departLane="best" from="1175576390" to="1175571875"/>
    <trip id="bik135" type="bik_bicycle" depart="135.00" departLane="best" departSpeed="max" from="-431249657" to="1175574904"/>
    <trip id="bik136" type="bik_bicycle" depart="136.00" departLane="best" from="1175564932" to="1175576643"/>
    <trip id="bik137" type="bik_bicycle" depart="137.00" departLane="best" from="821229039" to="1175565192"/>
    <trip id="bik138" type="bik_bicycle" depart="138.00" departLane="best" from="1175567052" to="1175566976"/>
    <trip id="bik140" type="bik_bicycle" depart="140.00" departLane="best" from="1175574664" to="1175564013"/>
    <trip id="bik141" type="bik_bicycle" depart="141.00" departLane="best" from="1175576859" to="1175565201"/>
    <trip id="bik142" type="bik_bicycle" depart="142.00" departLane="best" from="1175568007" to="1175575931"/>
    <trip id="bik143" type="bik_bicycle" depart="143.00" departLane="best" departSpeed="max" from="-819566326" to="1175568637"/>
    <trip id="bik144" type="bik_bicycle" depart="144.00" departLane="best" departSpeed="max" from="-1004336943" to="1175564487"/>
    <trip id="bik145" type="bik_bicycle" depart="145.00" departLane="best" from="1175564504" to="1175566540"/>
    <trip id="bik146" type="bik_bicycle" depart="146.00" departLane="best" from="1175569785" to="1175574836"/>
    <trip id="bik148" type="bik_bicycle" depart="148.00" departLane="best" departSpeed="max" from="-435398050" to="1175570573"/>
    <trip id="bik149" type="bik_bicycle" depart="149.00" departLane="best" from="1175565431" to="1175566226"/>
    <trip id="bik150" type="bik_bicycle" depart="150.00" departLane="best" from="1175571944" to="1175566903"/>
    <trip id="bik151" type="bik_bicycle" depart="151.00" departLane="best" departSpeed="max" from="108333850" to="1175563045"/>
    <trip id="bik152" type="bik_bicycle" depart="152.00" departLane="best" from="1175571195" to="1175571113"/>
    <trip id="bik153" type="bik_bicycle" depart="153.00" departLane="best" from="1175566732" to="1175569410"/>
    <trip id="bik154" type="bik_bicycle" depart="154.00" departLane="best" from="1175572771" to="1175573698"/>
    <trip id="bik155" type="bik_bicycle" depart="155.00" departLane="best" from="1175568239" to="1175568248"/>
    <trip id="bik156" type="bik_bicycle" depart="156.00" departLane="best" from="1175572738" to="1175566717"/>
    <trip id="bik157" type="bik_bicycle" depart="157.00" departLane="best" departSpeed="max" from="1175565233" to="1175573073"/>
    <trip id="bik158" type="bik_bicycle" depart="158.00" departLane="best" from="1175576683" to="1175575119"/>
    <trip id="bik159" type="bik_bicycle" depart="159.00" departLane="best" from="-571385405" to="1175563136"/>
    <trip id="bik160" type="bik_bicycle" depart="160.00" departLane="best" from="1175567752" to="1175575517"/>
    <trip id="bik161" type="bik_bicycle" depart="161.00" departLane="best" from="1175575364" to="1175568678"/>
    <trip id="bik162" type="bik_bicycle" depart="162.00" departLane="best" from="821560549" to="1175565819"/>
    <trip id="bik163" type="bik_bicycle" depart="163.00" departLane="best" from="1175568383" to="1175573633"/>
    <trip id="bik164" type="bik_bicycle" depart="164.00" departLane="best" from="1175576140" to="1175574540"/>
    <trip id="bik165" type="bik_bicycle" depart="165.00" departLane="best" from="1175564684" to="1175567687"/>
    <trip id="bik166" type="bik_bicycle" depart="166.00" departLane="best" from="1175572277" to="1175576759"/>
    <trip id="bik167" type="bik_bicycle" depart="167.00" departLane="best" from="1175574905" to="1175570305"/>
    <trip id="bik168" type="bik_bicycle" depart="168.00" departLane="best" from="1175571158" to="1175573692"/>
    <trip id="bik169" type="bik_bicycle" depart="169.00" departLane="best" from="1175572617" to="247462380"/>
    <trip id="bik170" type="bik_bicycle" depart="170.00" departLane="best" from="1175575149" to="1175570141"/>
    <trip id="bik171" type="bik_bicycle" depart="171.00" departLane="best" from="-821653251" to="1175562822"/>
    <trip id="bik172" type="bik_bicycle" depart="172.00" departLane="best" from="1175571920" to="1175568601"/>
    <trip id="bik173" type="bik_bicycle" depart="173.00" departLane="best" departSpeed="max" from="1175564367" to="1175573300"/>
    <trip id="bik174" type="bik_bicycle" depart="174.00" departLane="best" from="1175573889" to="1175565122"/>
    <trip id="bik175" type="bik_bicycle" depart="175.00" departLane="best" from="1175566425" to="821972262"/>
    <trip id="bik176" type="bik_bicycle" depart="176.00" departLane="best" from="1175567190" to="1175575405"/>
    <trip id="bik177" type="bik_bicycle" depart="177.00" departLane="best" from="78335837" to="869736315"/>
    <trip id="bik178" type="bik_bicycle" depart="178.00" departLane="best" from="1175564683" to="1175575872"/>
    <trip id="bik179" type="bik_bicycle" depart="179.00" departLane="best" from="-78046895" to="1175571215"/>
    <trip id="bik180" type="bik_bicycle" depart="180.00" departLane="best" departSpeed="max" from="1003933406" to="1175567711"/>
    <trip id="bik181" type="bik_bicycle" depart="181.00" departLane="best" from="1175570403" to="1175575664"/>
    <trip id="bik182" type="bik_bicycle" depart="182.00" departLane="best" from="1175569442" to="1175572661"/>
    <trip id="bik183" type="bik_bicycle" depart="183.00" departLane="best" from="1175575654" to="-107286362"/>
    <trip id="bik184" type="bik_bicycle" depart="184.00" departLane="best" from="1175577170" to="1175570932"/>
    <trip id="bik185" type="bik_bicycle" depart="185.00" departLane="best" from="1175573700" to="1175573961"/>
    <trip id="bik186" type="bik_bicycle" depart="186.00" departLane="best" from="572105165" to="1175571323"/>
    <trip id="bik187" type="bik_bicycle" depart="187.00" departLane="best" from="1175568492" to="1175563572"/>
    <trip id="bik188" type="bik_bicycle" depart="188.00" departLane="best" from="1175571072" to="-78046828"/>
    <trip id="bik189" type="bik_bicycle" depart="189.00" departLane="best" from="1175575476" to="1175571073"/>
    <trip id="bik190" type="bik_bicycle" depart="190.00" departLane="best" from="1175574072" to="-95413425"/>
    <trip id="bik191" type="bik_bicycle" depart="191.00" departLane="best" from="1175568326" to="1175571478"/>
    <trip id="bik192" type="bik_bicycle" depart="192.00" departLane="best" from="1175576167" to="1175567278"/>
    <trip id="bik193" type="bik_bicycle" depart="193.00" departLane="best" from="79537033" to="1175565047"/>
    <trip id="bik194" type="bik_bicycle" depart="194.00" departLane="best" from="1175573521" to="1175564344"/>
    <trip id="bik195" type="bik_bicycle" depart="195.00" departLane="best" from="1175575825" to="1175568705"/>
    <trip id="bik196" type="bik_bicycle" depart="196.00" departLane="best" from="1175569994" to="79091867"/>
    <trip id="bik198" type="bik_bicycle" depart="198.00" departLane="best" from="1175565653" to="1175574442"/>
    <trip id="bik199" type="bik_bicycle" depart="199.00" departLane="best" from="1175575672" to="1175565654"/>
    <trip id="bik200" type="bik_bicycle" depart="200.00" departLane="best" from="1175575000" to="571431282"/>
    <trip id="bik201" type="bik_bicycle" depart="201.00" departLane="best" from="1175570486" to="1175572815"/>
    <trip id="bik202" type="bik_bicycle" depart="202.00" departLane="best" from="1175569788" to="1175570766"/>
    <trip id="bik203" type="bik_bicycle" depart="203.00" departLane="best" from="1175576682" to="1175570940"/>
    <trip id="bik204" type="bik_bicycle" depart="204.00" departLane="best" from="1175566418" to="1175566907"/>
    <trip id="bik205" type="bik_bicycle" depart="205.00" departLane="best" departSpeed="max" from="803768005" to="1175573928"/>
    <trip id="bik206" type="bik_bicycle" depart="206.00" departLane="best" from="1175571355" to="1175571577"/>
    <trip id="bik207" type="bik_bicycle" depart="207.00" departLane="best" from="1175569244" to="79536327"/>
    <trip id="bik208" type="bik_bicycle" depart="208.00" departLane="best" from="1175569784" to="1175570326"/>
    <trip id="bik209" type="bik_bicycle" depart="209.00" departLane="best" from="1175567420" to="1175565255"/>
    <trip id="bik210" type="bik_bicycle" depart="210.00" departLane="best" from="1175562948" to="1175567448"/>
    <trip id="bik211" type="bik_bicycle" depart="211.00" departLane="best" from="1175567284" to="1175572511"/>
    <trip id="bik212" type="bik_bicycle" depart="212.00" departLane="best" from="1175564874" to="1175570155"/>
    <trip id="bik213" type="bik_bicycle" depart="213.00" departLane="best" from="-48870923" to="-48259122"/>
    <trip id="bik214" type="bik_bicycle" depart="214.00" departLane="best" from="1175576310" to="1175573105"/>
    <trip id="bik215" type="bik_bicycle" depart="215.00" departLane="best" from="79091833" to="1175573929"/>
    <trip id="bik216" type="bik_bicycle" depart="216.00" departLane="best" from="1175565593" to="1175573260"/>
    <trip id="bik218" type="bik_bicycle" depart="218.00" departLane="best" from="79536708" to="1175574759"/>
    <trip id="bik219" type="bik_bicycle" depart="219.00" departLane="best" from="-78046867" to="1175565939"/>
    <trip id="bik220" type="bik_bicycle" depart="220.00" departLane="best" from="1005474574" to="-824685967"/>
    <trip id="bik221" type="bik_bicycle" depart="221.00" departLane="best" from="1175563111" to="1175564426"/>
    <trip id="bik222" type="bik_bicycle" depart="222.00" departLane="best" from="1175573201" to="1175566740"/>
    <trip id="bik223" type="bik_bicycle" depart="223.00" departLane="best" from="1175567578" to="1175563733"/>
    <trip id="bik224" type="bik_bicycle" depart="224.00" departLane="best" from="1175574155" to="1175574781"/>
    <trip id="bik225" type="bik_bicycle" depart="225.00" departLane="best" from="1175575180" to="572040847"/>
    <trip id="bik226" type="bik_bicycle" depart="226.00" departLane="best" from="1175575387" to="1175567356"/>
    <trip id="bik227" type="bik_bicycle" depart="227.00" departLane="best" from="90972279" to="1175569310"/>
    <trip id="bik228" type="bik_bicycle" depart="228.00" departLane="best" departSpeed="max" from="-1003888767" to="1175575261"/>
    <trip id="bik230" type="bik_bicycle" depart="230.00" departLane="best" from="1175564874" to="824638088"/>
    <trip id="bik231" type="bik_bicycle" depart="231.00" departLane="best" from="1175575334" to="-78046874"/>
    <trip id="bik232" type="bik_bicycle" depart="232.00" departLane="best" from="1175568450" to="1175576609"/>
    <trip id="bik233" type="bik_bicycle" depart="233.00" departLane="best" from="1175569328" to="1175575823"/>
    <trip id="bik234" type="bik_bicycle" depart="234.00" departLane="best" from="1175564094" to="102150857"/>
    <trip id="bik235" type="bik_bicycle" depart="235.00" departLane="best" from="1175572992" to="1175569444"/>
    <trip id="bik237" type="bik_bicycle" depart="237.00" departLane="best" from="1175575660" to="430650537"/>
    <trip id="bik238" type="bik_bicycle" depart="238.00" departLane="best" from="1175570082" to="1175574604"/>
    <trip id="bik239" type="bik_bicycle" depart="239.00" departLane="best" from="1175575987" to="-1006040187"/>
    <trip id="bik240" type="bik_bicycle" depart="240.00" departLane="best" from="1175573348" to="1175565691"/>
    <trip id="bik242" type="bik_bicycle" depart="242.00" departLane="best" from="1175576370" to="1175566780"/>
    <trip id="bik243" type="bik_bicycle" depart="243.00" departLane="best" from="1175569582" to="79091669"/>
    <trip id="bik244" type="bik_bicycle" depart="244.00" departLane="best" from="1175566701" to="95850722"/>
    <trip id="bik245" type="bik_bicycle" depart="245.00" departLane="best" from="1175570839" to="1175574759"/>
    <trip id="bik246" type="bik_bicycle" depart="246.00" departLane="best" from="1175564680" to="1175575609"/>
    <trip id="bik247" type="bik_bicycle" depart="247.00" departLane="best" departSpeed="max" from="1175569718" to="1175565571"/>
    <trip id="bik248" type="bik_bicycle" depart="248.00" departLane="best" departSpeed="max" from="1175576455" to="1175575646"/>
    <trip id="bik249" type="bik_bicycle" depart="249.00" departLane="best" from="1175563368" to="1003856796"/>
    <trip id="bik250" type="bik_bicycle" depart="250.00" departLane="best" from="1175575385" to="823517066"/>
    <trip id="bik251" type="bik_bicycle" depart="251.00" departLane="best" from="1175568838" to="1175575318"/>
    <trip id="bik252" type="bik_bicycle" depart="252.00" departLane="best" from="1175576624" to="1175573199"/>
    <trip id="bik253" type="bik_bicycle" depart="253.00" departLane="best" from="1175567412" to="-436185374"/>
    <trip id="bik254" type="bik_bicycle" depart="254.00" departLane="best" from="1175566574" to="1175570192"/>
    <trip id="bik255" type="bik_bicycle" depart="255.00" departLane="best" from="79536057" to="571431285"/>
    <trip id="bik256" type="bik_bicycle" depart="256.00" departLane="best" from="1175565763" to="1175573566"/>
    <trip id="bik257" type="bik_bicycle" depart="257.00" departLane="best" from="1175564211" to="1175570361"/>
    <trip id="bik258" type="bik_bicycle" depart="258.00" departLane="best" departSpeed="max" from="-572104288" to="1175566274"/>
    <trip id="bik259" type="bik_bicycle" depart="259.00" departLane="best" from="1175563042" to="1175567632"/>
    <trip id="bik260" type="bik_bicycle" depart="260.00" departLane="best" from="-821882274" to="1175564595"/>
    <trip id="bik261" type="bik_bicycle" depart="261.00" departLane="best" from="1175564924" to="1175571891"/>
    <trip id="bik262" type="bik_bicycle" depart="262.00" departLane="best" from="1175571604" to="1063394432"/>
    <trip id="bik263" type="bik_bicycle" depart="263.00" departLane="best" from="1175571112" to="1175573139"/>