<?xml version="1.0" encoding="UTF-8"?>

<!-- generated on 2023-07-01 23:53:08.674662 by randomTrips.py v1_18_0+0023-ef591d47046
<configuration>
    <duarouter-routing-threads value="8"/>
    <end value="1000.0"/>
    <max-distance value="4000.0"/>
    <net-file value="pasto.net.xml.gz"/>
    <pedestrians value="True"/>
    <period value="1.0"/>
    <random value="True"/>
    <remove-loops value="True"/>
    <route-file value="pasto.pedestrian.rou.xml"/>
    <output-trip-file value="pasto.pedestrian.trips.xml"/>
    <prefix value="ped"/>
    <validate value="True"/>
    <vehicle-class value="pedestrian"/>
    <via-edge-types value="highway.motorway,highway.motorway_link,highway.trunk_link,highway.primary_link,highway.secondary_link,highway.tertiary_link"/>
</configuration>
-->

<!-- generated on 2023-07-01 23:53:00 by Eclipse SUMO duarouter Version v1_18_0+0023-ef591d47046
<configuration xmlns:xsi="http://www.w3.org/2001/XMLSchema-instance" xsi:noNamespaceSchemaLocation="http://sumo.dlr.de/xsd/duarouterConfiguration.xsd">

    <input>
        <net-file value="pasto.net.xml.gz"/>
        <route-files value="pasto.pedestrian.trips.xml"/>
    </input>

    <output>
        <output-file value="pasto.pedestrian.trips.xml.tmp"/>
        <alternatives-output value="NUL"/>
        <write-trips value="true"/>
    </output>

    <processing>
        <remove-loops value="true"/>
        <routing-threads value="8"/>
    </processing>

    <time>
        <begin value="0.0"/>
        <end value="1000.0"/>
    </time>

    <report>
        <no-warnings value="true"/>
        <ignore-errors value="true"/>
        <no-step-log value="true"/>
    </report>

</configuration>
-->

<routes xmlns:xsi="http://www.w3.org/2001/XMLSchema-instance" xsi:noNamespaceSchemaLocation="http://sumo.dlr.de/xsd/routes_file.xsd">
    <vType id="ped_pedestrian" vClass="pedestrian"/>
    <person id="ped0" type="ped_pedestrian" depart="0.00">
        <personTrip from="1175572857" to="1175572572" walkFactor="0.75"/>
    </person>
    <person id="ped1" type="ped_pedestrian" depart="1.00">
        <personTrip from="571386824" to="79091831" walkFactor="0.75"/>
    </person>
    <person id="ped2" type="ped_pedestrian" depart="2.00">
        <personTrip from="1175574129" to="1175566820" walkFactor="0.75"/>
    </person>
    <person id="ped3" type="ped_pedestrian" depart="3.00">
        <personTrip from="1175569623" to="1175570622" walkFactor="0.75"/>
    </person>
    <person id="ped4" type="ped_pedestrian" depart="4.00">
        <personTrip from="1175564967" to="1175566073" walkFactor="0.75"/>
    </person>
    <person id="ped5" type="ped_pedestrian" depart="5.00">
        <personTrip from="1175570288" to="1175572875" walkFactor="0.75"/>
    </person>
    <person id="ped6" type="ped_pedestrian" depart="6.00">
        <personTrip from="1175570210" to="1175565128" walkFactor="0.75"/>
    </person>
    <person id="ped7" type="ped_pedestrian" depart="7.00">
        <personTrip from="1175573133" to="1175564101" walkFactor="0.75"/>
    </person>
    <person id="ped8" type="ped_pedestrian" depart="8.00">
        <personTrip from="-47997595" to="1175575506" walkFactor="0.75"/>
    </person>
    <person id="ped9" type="ped_pedestrian" depart="9.00">
        <personTrip from="821923847" to="1175566432" walkFactor="0.75"/>
    </person>
    <person id="ped10" type="ped_pedestrian" depart="10.00">
        <personTrip from="1175564956" to="1175570573" walkFactor="0.75"/>
    </person>
    <person id="ped11" type="ped_pedestrian" depart="11.00">
        <personTrip from="1175564708" to="1175576395" walkFactor="0.75"/>
    </person>
    <person id="ped12" type="ped_pedestrian" depart="12.00">
        <personTrip from="797703537" to="-824650894" walkFactor="0.75"/>
    </person>
    <person id="ped13" type="ped_pedestrian" depart="13.00">
        <personTrip from="1175564160" to="1175574824" walkFactor="0.75"/>
    </person>
    <person id="ped14" type="ped_pedestrian" depart="14.00">
        <personTrip from="1175572341" to="1175570526" walkFactor="0.75"/>
    </person>
    <person id="ped15" type="ped_pedestrian" depart="15.00">
        <personTrip from="1005535553" to="821236272" walkFactor="0.75"/>
    </person>
    <person id="ped16" type="ped_pedestrian" depart="16.00">
        <personTrip from="1175573005" to="1175570775" walkFactor="0.75"/>
    </person>
    <person id="ped17" type="ped_pedestrian" depart="17.00">
        <personTrip from="1175576405" to="1175570321" walkFactor="0.75"/>
    </person>
    <person id="ped18" type="ped_pedestrian" depart="18.00">
        <personTrip from="-572146505" to="821524255" walkFactor="0.75"/>
    </person>
    <person id="ped19" type="ped_pedestrian" depart="19.00">
        <personTrip from="-1003896075" to="1175568343" walkFactor="0.75"/>
    </person>
    <person id="ped20" type="ped_pedestrian" depart="20.00">
        <personTrip from="824684672" to="1175574285" walkFactor="0.75"/>
    </person>
    <person id="ped21" type="ped_pedestrian" depart="21.00">
        <personTrip from="1175575071" to="1175568362" walkFactor="0.75"/>
    </person>
    <person id="ped22" type="ped_pedestrian" depart="22.00">
        <personTrip from="1175564800" to="1175566142" walkFactor="0.75"/>
    </person>
    <person id="ped23" type="ped_pedestrian" depart="23.00">
        <personTrip from="1175573782" to="1005747015" walkFactor="0.75"/>
    </person>
    <person id="ped24" type="ped_pedestrian" depart="24.00">
        <personTrip from="1175576966" to="824641786" walkFactor="0.75"/>
    </person>
    <person id="ped25" type="ped_pedestrian" depart="25.00">
        <personTrip from="-572102323" to="1175568066" walkFactor="0.75"/>
    </person>
    <person id="ped26" type="ped_pedestrian" depart="26.00">
        <personTrip from="1175571934" to="1175568354" walkFactor="0.75"/>
    </person>
    <person id="ped27" type="ped_pedestrian" depart="27.00">
        <personTrip from="1175571890" to="1175572533" walkFactor="0.75"/>
    </person>
    <person id="ped28" type="ped_pedestrian" depart="28.00">
        <personTrip from="1175573767" to="-821635962" walkFactor="0.75"/>
    </person>
    <person id="ped29" type="ped_pedestrian" depart="29.00">
        <personTrip from="-572032376" to="1175574958" walkFactor="0.75"/>
    </person>
    <person id="ped30" type="ped_pedestrian" depart="30.00">
        <personTrip from="1175563545" to="1175576574" walkFactor="0.75"/>
    </person>
    <person id="ped31" type="ped_pedestrian" depart="31.00">
        <personTrip from="1175569636" to="-571429939" walkFactor="0.75"/>
    </person>
    <person id="ped32" type="ped_pedestrian" depart="32.00">
        <personTrip from="1175574653" to="1175575066" walkFactor="0.75"/>
    </person>
    <person id="ped33" type="ped_pedestrian" depart="33.00">
        <personTrip from="1175568583" to="1175571477" walkFactor="0.75"/>
    </person>
    <person id="ped34" type="ped_pedestrian" depart="34.00">
        <personTrip from="1175573340" to="1175574356" walkFactor="0.75"/>
    </person>
    <person id="ped35" type="ped_pedestrian" depart="35.00">
        <personTrip from="1175566715" to="1175572911" walkFactor="0.75"/>
    </person>
    <person id="ped36" type="ped_pedestrian" depart="36.00">
        <personTrip from="1006064980" to="881754941" walkFactor="0.75"/>
    </person>
    <person id="ped37" type="ped_pedestrian" depart="37.00">
        <personTrip from="571390643" to="1175571331" walkFactor="0.75"/>
    </person>
    <person id="ped38" type="ped_pedestrian" depart="38.00">
        <personTrip from="-79537173" to="1175564188" walkFactor="0.75"/>
    </person>
    <person id="ped39" type="ped_pedestrian" depart="39.00">
        <personTrip from="1175564077" to="1175570647" walkFactor="0.75"/>
    </person>
    <person id="ped40" type="ped_pedestrian" depart="40.00">
        <personTrip from="1175573731" to="-79536997" walkFactor="0.75"/>
    </person>
    <person id="ped41" type="ped_pedestrian" depart="41.00">
        <personTrip from="-1006144280" to="1175569587" walkFactor="0.75"/>
    </person>
    <person id="ped42" type="ped_pedestrian" depart="42.00">
        <personTrip from="1175568971" to="1175564091" walkFactor="0.75"/>
    </person>
    <person id="ped43" type="ped_pedestrian" depart="43.00">
        <personTrip from="1175568470" to="1175564248" walkFactor="0.75"/>
    </person>
    <person id="ped44" type="ped_pedestrian" depart="44.00">
        <personTrip from="1175565031" to="1175569914" walkFactor="0.75"/>
    </person>
    <person id="ped45" type="ped_pedestrian" depart="45.00">
        <personTrip from="1175564108" to="1175569140" walkFactor="0.75"/>
    </person>
    <person id="ped46" type="ped_pedestrian" depart="46.00">
        <personTrip from="79536829" to="1175566540" walkFactor="0.75"/>
    </person>
    <person id="ped47" type="ped_pedestrian" depart="47.00">
        <personTrip from="824291433" to="1175569213" walkFactor="0.75"/>
    </person>
    <person id="ped48" type="ped_pedestrian" depart="48.00">
        <personTrip from="1175565726" to="78046914" walkFactor="0.75"/>
    </person>
    <person id="ped49" type="ped_pedestrian" depart="49.00">
        <personTrip from="1175576786" to="1175572335" walkFactor="0.75"/>
    </person>
    <person id="ped50" type="ped_pedestrian" depart="50.00">
        <personTrip from="1175569146" to="1175572091" walkFactor="0.75"/>
    </person>
    <person id="ped51" type="ped_pedestrian" depart="51.00">
        <personTrip from="-824617717" to="78335851" walkFactor="0.75"/>
    </person>
    <person id="ped52" type="ped_pedestrian" depart="52.00">
        <personTrip from="1175567152" to="1175563541" walkFactor="0.75"/>
    </person>
    <person id="ped53" type="ped_pedestrian" depart="53.00">
        <personTrip from="627049340" to="142724426" walkFactor="0.75"/>
    </person>
    <person id="ped54" type="ped_pedestrian" depart="54.00">
        <personTrip from="1175571045" to="1175570637" walkFactor="0.75"/>
    </person>
    <person id="ped55" type="ped_pedestrian" depart="55.00">
        <personTrip from="1175573387" to="-572099468" walkFactor="0.75"/>
    </person>
    <person id="ped56" type="ped_pedestrian" depart="56.00">
        <personTrip from="1175567000" to="1175566773" walkFactor="0.75"/>
    </person>
    <person id="ped57" type="ped_pedestrian" depart="57.00">
        <personTrip from="1175575308" to="1175565330" walkFactor="0.75"/>
    </person>
    <person id="ped58" type="ped_pedestrian" depart="58.00">
        <personTrip from="1175575549" to="1175566457" walkFactor="0.75"/>
    </person>
    <person id="ped59" type="ped_pedestrian" depart="59.00">
        <personTrip from="1175563832" to="1175567701" walkFactor="0.75"/>
    </person>
    <person id="ped60" type="ped_pedestrian" depart="60.00">
        <personTrip from="79535780" to="1083324817" walkFactor="0.75"/>
    </person>
    <person id="ped61" type="ped_pedestrian" depart="61.00">
        <personTrip from="1175565434" to="1175573022" walkFactor="0.75"/>
    </person>
    <person id="ped62" type="ped_pedestrian" depart="62.00">
        <personTrip from="1003487297" to="1175571350" walkFactor="0.75"/>
    </person>
    <person id="ped63" type="ped_pedestrian" depart="63.00">
        <personTrip from="1175565383" to="1175570846" walkFactor="0.75"/>
    </person>
    <person id="ped64" type="ped_pedestrian" depart="64.00">
        <personTrip from="1175563643" to="1175564177" walkFactor="0.75"/>
    </person>
    <person id="ped65" type="ped_pedestrian" depart="65.00">
        <personTrip from="1175574813" to="-78046939" walkFactor="0.75"/>
    </person>
    <person id="ped66" type="ped_pedestrian" depart="66.00">
        <personTrip from="1175572165" to="1175573125" walkFactor="0.75"/>
    </person>
    <person id="ped67" type="ped_pedestrian" depart="67.00">
        <personTrip from="1005493464" to="1175564076" walkFactor="0.75"/>
    </person>
    <person id="ped68" type="ped_pedestrian" depart="68.00">
        <personTrip from="1175567551" to="1175569425" walkFactor="0.75"/>
    </person>
    <person id="ped69" type="ped_pedestrian" depart="69.00">
        <personTrip from="1175563593" to="1175564060" walkFactor="0.75"/>
    </person>
    <person id="ped70" type="ped_pedestrian" depart="70.00">
        <personTrip from="1175575550" to="-79536044" walkFactor="0.75"/>
    </person>
    <person id="ped71" type="ped_pedestrian" depart="71.00">
        <personTrip from="1175564239" to="-821957322" walkFactor="0.75"/>
    </person>
    <person id="ped72" type="ped_pedestrian" depart="72.00">
        <personTrip from="1175563258" to="-1003828797" walkFactor="0.75"/>
    </person>
    <person id="ped73" type="ped_pedestrian" depart="73.00">
        <personTrip from="1175569750" to="571373698" walkFactor="0.75"/>
    </person>
    <person id="ped74" type="ped_pedestrian" depart="74.00">
        <personTrip from="1175573597" to="1175573365" walkFactor="0.75"/>
    </person>
    <person id="ped75" type="ped_pedestrian" depart="75.00">
        <personTrip from="1005182683" to="247553445" walkFactor="0.75"/>
    </person>
    <person id="ped76" type="ped_pedestrian" depart="76.00">
        <personTrip from="-107286424" to="1175568759" walkFactor="0.75"/>
    </person>
    <person id="ped77" type="ped_pedestrian" depart="77.00">
        <personTrip from="1005228023" to="1175569939" walkFactor="0.75"/>
    </person>
    <person id="ped78" type="ped_pedestrian" depart="78.00">
        <personTrip from="247557152" to="1175571377" walkFactor="0.75"/>
    </person>
    <person id="ped79" type="ped_pedestrian" depart="79.00">
        <personTrip from="1175565662" to="1175570714" walkFactor="0.75"/>
    </person>
    <person id="ped80" type="ped_pedestrian" depart="80.00">
        <personTrip from="571374726" to="79537226" walkFactor="0.75"/>
    </person>
    <person id="ped81" type="ped_pedestrian" depart="81.00">
        <personTrip from="1175568754" to="1175564355" walkFactor="0.75"/>
    </person>
    <person id="ped82" type="ped_pedestrian" depart="82.00">
        <personTrip from="1175564209" to="1175564228" walkFactor="0.75"/>
    </person>
    <person id="ped83" type="ped_pedestrian" depart="83.00">
        <personTrip from="1175564866" to="-571298499" walkFactor="0.75"/>
    </person>
    <person id="ped84" type="ped_pedestrian" depart="84.00">
        <personTrip from="1175565409" to="589939240" walkFactor="0.75"/>
    </person>
    <person id="ped85" type="ped_pedestrian" depart="85.00">
        <personTrip from="-821943473" to="1175574578" walkFactor="0.75"/>
    </person>
    <person id="ped86" type="ped_pedestrian" depart="86.00">
        <personTrip from="1175575610" to="1175574303" walkFactor="0.75"/>
    </person>
    <person id="ped87" type="ped_pedestrian" depart="87.00">
        <personTrip from="1175568487" to="-821221637" walkFactor="0.75"/>
    </person>
    <person id="ped88" type="ped_pedestrian" depart="88.00">
        <personTrip from="1175565747" to="819565355" walkFactor="0.75"/>
    </person>
    <person id="ped89" type="ped_pedestrian" depart="89.00">
        <personTrip from="1175575098" to="1175574703" walkFactor="0.75"/>
    </person>
    <person id="ped90" type="ped_pedestrian" depart="90.00">
        <personTrip from="1175574970" to="1175574592" walkFactor="0.75"/>
    </person>
    <person id="ped91" type="ped_pedestrian" depart="91.00">
        <personTrip from="1175567585" to="1175568749" walkFactor="0.75"/>
    </person>
    <person id="ped92" type="ped_pedestrian" depart="92.00">
        <personTrip from="627227529" to="1175569119" walkFactor="0.75"/>
    </person>
    <person id="ped93" type="ped_pedestrian" depart="93.00">
        <personTrip from="1175565303" to="1175570551" walkFactor="0.75"/>
    </person>
    <person id="ped94" type="ped_pedestrian" depart="94.00">
        <personTrip from="1175570643" to="-572993586" walkFactor="0.75"/>
    </person>
    <person id="ped95" type="ped_pedestrian" depart="95.00">
        <personTrip from="1175570579" to="824304031" walkFactor="0.75"/>
    </person>
    <person id="ped96" type="ped_pedestrian" depart="96.00">
        <personTrip from="1175566076" to="1175576334" walkFactor="0.75"/>
    </person>
    <person id="ped97" type="ped_pedestrian" depart="97.00">
        <personTrip from="1175573489" to="1175563852" walkFactor="0.75"/>
    </person>
    <person id="ped98" type="ped_pedestrian" depart="98.00">
        <personTrip from="1175564725" to="1175572749" walkFactor="0.75"/>
    </person>
    <person id="ped99" type="ped_pedestrian" depart="99.00">
        <personTrip from="1175571099" to="-572156592" walkFactor="0.75"/>
    </person>
    <person id="ped100" type="ped_pedestrian" depart="100.00">
        <personTrip from="1175574700" to="1175567089" walkFactor="0.75"/>
    </person>
    <person id="ped101" type="ped_pedestrian" depart="101.00">
        <personTrip from="1175572343" to="-79537014" walkFactor="0.75"/>
    </person>
    <person id="ped103" type="ped_pedestrian" depart="103.00">
        <personTrip from="824646854" to="1175574673" walkFactor="0.75"/>
    </person>
    <person id="ped104" type="ped_pedestrian" depart="104.00">
        <personTrip from="1175571379" to="1175568935" walkFactor="0.75"/>
    </person>
    <person id="ped105" type="ped_pedestrian" depart="105.00">
        <personTrip from="821958350" to="-821221637" walkFactor="0.75"/>
    </person>
    <person id="ped106" type="ped_pedestrian" depart="106.00">
        <personTrip from="1175571410" to="1175565313" walkFactor="0.75"/>
    </person>
    <person id="ped107" type="ped_pedestrian" depart="107.00">
        <personTrip from="1175568128" to="1175563437" walkFactor="0.75"/>
    </person>
    <person id="ped108" type="ped_pedestrian" depart="108.00">
        <personTrip from="-540970685" to="1175569040" walkFactor="0.75"/>
    </person>
    <person id="ped109" type="ped_pedestrian" depart="109.00">
        <personTrip from="79536198" to="572025624" walkFactor="0.75"/>
    </person>
    <person id="ped110" type="ped_pedestrian" depart="110.00">
        <personTrip from="1175575449" to="1175570250" walkFactor="0.75"/>
    </person>
    <person id="ped111" type="ped_pedestrian" depart="111.00">
        <personTrip from="1005188513" to="1175568328" walkFactor="0.75"/>
    </person>
    <person id="ped112" type="ped_pedestrian" depart="112.00">
        <personTrip from="1175565043" to="1175567016" walkFactor="0.75"/>
    </person>
    <person id="ped113" type="ped_pedestrian" depart="113.00">
        <personTrip from="1175572291" to="1175571159" walkFactor="0.75"/>
    </person>
    <person id="ped114" type="ped_pedestrian" depart="114.00">
        <personTrip from="1175567419" to="1175571953" walkFactor="0.75"/>
    </person>
    <person id="ped115" type="ped_pedestrian" depart="115.00">
        <personTrip from="1175572655" to="824308952" walkFactor="0.75"/>
    </person>
    <person id="ped116" type="ped_pedestrian" depart="116.00">
        <personTrip from="1175572423" to="1175575651" walkFactor="0.75"/>
    </person>
    <person id="ped117" type="ped_pedestrian" depart="117.00">
        <personTrip from="1175566406" to="1175570065" walkFactor="0.75"/>
    </person>
    <person id="ped118" type="ped_pedestrian" depart="118.00">
        <personTrip from="-436172544" to="1175568411" walkFactor="0.75"/>
    </person>
    <person id="ped119" type="ped_pedestrian" depart="119.00">
        <personTrip from="571453583" to="-824620510" walkFactor="0.75"/>
    </person>
    <person id="ped120" type="ped_pedestrian" depart="120.00">
        <personTrip from="1175571275" to="1175570142" walkFactor="0.75"/>
    </person>
    <person id="ped121" type="ped_pedestrian" depart="121.00">
        <personTrip from="1175562832" to="79091860" walkFactor="0.75"/>
    </person>
    <person id="ped122" type="ped_pedestrian" depart="122.00">
        <personTrip from="1175569372" to="1175574297" walkFactor="0.75"/>
    </person>
    <person id="ped123" type="ped_pedestrian" depart="123.00">
        <personTrip from="1005471791" to="-572159417" walkFactor="0.75"/>
    </person>
    <person id="ped124" type="ped_pedestrian" depart="124.00">
        <personTrip from="1175573032" to="1175565148" walkFactor="0.75"/>
    </person>
    <person id="ped125" type="ped_pedestrian" depart="125.00">
        <personTrip from="1175569769" to="1175564883" walkFactor="0.75"/>
    </person>
    <person id="ped126" type="ped_pedestrian" depart="126.00">
        <personTrip from="1175572770" to="1175566544" walkFactor="0.75"/>
    </person>
    <person id="ped127" type="ped_pedestrian" depart="127.00">
        <personTrip from="247535979" to="1175570484" walkFactor="0.75"/>
    </person>
    <person id="ped128" type="ped_pedestrian" depart="128.00">
        <personTrip from="-821926013" to="1175565248" walkFactor="0.75"/>
    </person>
    <person id="ped129" type="ped_pedestrian" depart="129.00">
        <personTrip from="632000857" to="1175569883" walkFactor="0.75"/>
    </person>
    <person id="ped130" type="ped_pedestrian" depart="130.00">
        <personTrip from="1175566507" to="1175573577" walkFactor="0.75"/>
    </person>
    <person id="ped131" type="ped_pedestrian" depart="131.00">
        <personTrip from="1175572514" to="1175565770" walkFactor="0.75"/>
    </person>
    <person id="ped132" type="ped_pedestrian" depart="132.00">
        <personTrip from="1175572728" to="78046814" walkFactor="0.75"/>
    </person>
    <person id="ped133" type="ped_pedestrian" depart="133.00">
        <personTrip from="1175569616" to="1175574886" walkFactor="0.75"/>
    </person>
    <person id="ped134" type="ped_pedestrian" depart="134.00">
        <personTrip from="79535960" to="1175576696" walkFactor="0.75"/>
    </person>
    <person id="ped135" type="ped_pedestrian" depart="135.00">
        <personTrip from="1175573685" to="1175571564" walkFactor="0.75"/>
    </person>
    <person id="ped136" type="ped_pedestrian" depart="136.00">
        <personTrip from="1175568830" to="1175567140" walkFactor="0.75"/>
    </person>
    <person id="ped137" type="ped_pedestrian" depart="137.00">
        <personTrip from="1175576253" to="1175573036" walkFactor="0.75"/>
    </person>
    <person id="ped138" type="ped_pedestrian" depart="138.00">
        <personTrip from="1175574790" to="-1005537407" walkFactor="0.75"/>
    </person>
    <person id="ped139" type="ped_pedestrian" depart="139.00">
        <personTrip from="571304137" to="79711774" walkFactor="0.75"/>
    </person>
    <person id="ped140" type="ped_pedestrian" depart="140.00">
        <personTrip from="1175574763" to="-821623981" walkFactor="0.75"/>
    </person>
    <person id="ped141" type="ped_pedestrian" depart="141.00">
        <personTrip from="1175573824" to="-821499992" walkFactor="0.75"/>
    </person>
    <person id="ped142" type="ped_pedestrian" depart="142.00">
        <personTrip from="1175563266" to="1175564206" walkFactor="0.75"/>
    </person>
    <person id="ped143" type="ped_pedestrian" depart="143.00">
        <personTrip from="1175569212" to="1175570575" walkFactor="0.75"/>
    </person>
    <person id="ped144" type="ped_pedestrian" depart="144.00">
        <personTrip from="1175573380" to="1175575517" walkFactor="0.75"/>
    </person>
    <person id="ped145" type="ped_pedestrian" depart="145.00">
        <personTrip from="869736328" to="1175576778" walkFactor="0.75"/>
    </person>
    <person id="ped146" type="ped_pedestrian" depart="146.00">
        <personTrip from="1175574709" to="96379284" walkFactor="0.75"/>
    </person>
    <person id="ped147" type="ped_pedestrian" depart="147.00">
        <personTrip from="1175570959" to="571373702" walkFactor="0.75"/>
    </person>
    <person id="ped148" type="ped_pedestrian" depart="148.00">
        <personTrip from="1175566299" to="1175564924" walkFactor="0.75"/>
    </person>
    <person id="ped149" type="ped_pedestrian" depart="149.00">
        <personTrip from="1175570613" to="1175568815" walkFactor="0.75"/>
    </person>
    <person id="ped150" type="ped_pedestrian" depart="150.00">
        <personTrip from="79536055" to="-1005244067" walkFactor="0.75"/>
    </person>
    <person id="ped151" type="ped_pedestrian" depart="151.00">
        <personTrip from="1175563570" to="1175569715" walkFactor="0.75"/>
    </person>
    <person id="ped152" type="ped_pedestrian" depart="152.00">
        <personTrip from="1175566260" to="1175565969" walkFactor="0.75"/>
    </person>
    <person id="ped153" type="ped_pedestrian" depart="153.00">
        <personTrip from="571372358" to="1175573104" walkFactor="0.75"/>
    </person>
    <person id="ped154" type="ped_pedestrian" depart="154.00">
        <personTrip from="48259122" to="1175570264" walkFactor="0.75"/>
    </person>
    <person id="ped155" type="ped_pedestrian" depart="155.00">
        <personTrip from="824899555" to="1175574192" walkFactor="0.75"/>
    </person>
    <person id="ped156" type="ped_pedestrian" depart="156.00">
        <personTrip from="1005747014" to="-821233828" walkFactor="0.75"/>
    </person>
    <person id="ped157" type="ped_pedestrian" depart="157.00">
        <personTrip from="1175577071" to="1175575621" walkFactor="0.75"/>
    </person>
    <person id="ped158" type="ped_pedestrian" depart="158.00">
        <personTrip from="1175567533" to="1175565505" walkFactor="0.75"/>
    </person>
    <person id="ped159" type="ped_pedestrian" depart="159.00">
        <personTrip from="1175573929" to="1175570564" walkFactor="0.75"/>
    </person>
    <person id="ped160" type="ped_pedestrian" depart="160.00">
        <personTrip from="1175569717" to="-1005269403" walkFactor="0.75"/>
    </person>
    <person id="ped161" type="ped_pedestrian" depart="161.00">
        <personTrip from="1175570930" to="1175572007" walkFactor="0.75"/>
    </person>
    <person id="ped162" type="ped_pedestrian" depart="162.00">
        <personTrip from="1175573070" to="1175563587" walkFactor="0.75"/>
    </person>
    <person id="ped163" type="ped_pedestrian" depart="163.00">
        <personTrip from="79091785" to="1175562975" walkFactor="0.75"/>
    </person>
    <person id="ped164" type="ped_pedestrian" depart="164.00">
        <personTrip from="1175575036" to="1175569846" walkFactor="0.75"/>
    </person>
    <person id="ped165" type="ped_pedestrian" depart="165.00">
        <personTrip from="155211160" to="-821657156" walkFactor="0.75"/>
    </person>
    <person id="ped166" type="ped_pedestrian" depart="166.00">
        <personTrip from="-869736350" to="1175570859" walkFactor="0.75"/>
    </person>
    <person id="ped167" type="ped_pedestrian" depart="167.00">
        <personTrip from="1175567917" to="1175577174" walkFactor="0.75"/>
    </person>
    <person id="ped168" type="ped_pedestrian" depart="168.00">
        <personTrip from="1175565480" to="1175572245" walkFactor="0.75"/>
    </person>
    <person id="ped169" type="ped_pedestrian" depart="169.00">
        <personTrip from="107286369" to="1175577083" walkFactor="0.75"/>
    </person>
    <person id="ped170" type="ped_pedestrian" depart="170.00">
        <personTrip from="1175565519" to="571369765" walkFactor="0.75"/>
    </person>
    <person id="ped171" type="ped_pedestrian" depart="171.00">
        <personTrip from="1175571218" to="48268651" walkFactor="0.75"/>
    </person>
    <person id="ped172" type="ped_pedestrian" depart="172.00">
        <personTrip from="79091970" to="1175563377" walkFactor="0.75"/>
    </person>
    <person id="ped174" type="ped_pedestrian" depart="174.00">
        <personTrip from="79711782" to="821902703" walkFactor="0.75"/>
    </person>
    <person id="ped175" type="ped_pedestrian" depart="175.00">
        <personTrip from="1175569928" to="1175566155" walkFactor="0.75"/>
    </person>
    <person id="ped176" type="ped_pedestrian" depart="176.00">
        <personTrip from="-440420827" to="-1007548966" walkFactor="0.75"/>
    </person>
    <person id="ped177" type="ped_pedestrian" depart="177.00">
        <personTrip from="48563000" to="1175565941" walkFactor="0.75"/>
    </person>
    <person id="ped178" type="ped_pedestrian" depart="178.00">
        <personTrip from="1175573637" to="1175572131" walkFactor="0.75"/>
    </person>
    <person id="ped179" type="ped_pedestrian" depart="179.00">
        <personTrip from="1175570985" to="1175572673" walkFactor="0.75"/>
    </person>
    <person id="ped180" type="ped_pedestrian" depart="180.00">
        <personTrip from="1175566273" to="1175573998" walkFactor="0.75"/>
    </person>
    <person id="ped181" type="ped_pedestrian" depart="181.00">
        <personTrip from="1175564261" to="1175575815" walkFactor="0.75"/>
    </person>
    <person id="ped182" type="ped_pedestrian" depart="182.00">
        <personTrip from="-1005471775" to="1175562809" walkFactor="0.75"/>
    </person>
    <person id="ped183" type="ped_pedestrian" depart="183.00">
        <personTrip from="1175565634" to="869736336" walkFactor="0.75"/>
    </person>
    <person id="ped184" type="ped_pedestrian" depart="184.00">
        <personTrip from="1175574273" to="1175573305" walkFactor="0.75"/>
    </person>
    <person id="ped185" type="ped_pedestrian" depart="185.00">
        <personTrip from="1175575588" to="1175574713" walkFactor="0.75"/>
    </person>
    <person id="ped186" type="ped_pedestrian" depart="186.00">
        <personTrip from="-821900636" to="-821918905" walkFactor="0.75"/>
    </person>
    <person id="ped187" type="ped_pedestrian" depart="187.00">
        <personTrip from="1175570526" to="1175572748" walkFactor="0.75"/>
    </person>
    <person id="ped188" type="ped_pedestrian" depart="188.00">
        <personTrip from="79536922" to="1175569033" walkFactor="0.75"/>
    </person>
    <person id="ped189" type="ped_pedestrian" depart="189.00">
        <personTrip from="-1003899614" to="-824684666" walkFactor="0.75"/>
    </person>