<?xml version="1.0" encoding="UTF-8"?>

<!-- generated on 2023-07-01 23:23:18.086138 by randomTrips.py v1_18_0+0023-ef591d47046
<configuration>
    <duarouter-routing-threads value="4"/>
    <end value="1000.0"/>
    <fringe-start-attributes value="departSpeed=&quot;max&quot;"/>
    <max-distance value="8000.0"/>
    <min-distance value="2000.0"/>
    <net-file value="pasto.net.xml.gz"/>
    <period value="1.0"/>
    <random value="True"/>
    <remove-loops value="True"/>
    <route-file value="pasto.motorcycle.rou.xml"/>
    <trip-attributes value="departLane=&quot;best&quot;"/>
    <output-trip-file value="pasto.motorcycle.trips.xml"/>
    <prefix value="mot"/>
    <validate value="True"/>
    <vclass value="motorcycle"/>
    <vehicle-class value="motorcycle"/>
    <via-edge-types value="highway.motorway,highway.motorway_link,highway.trunk_link,highway.primary_link,highway.secondary_link,highway.tertiary_link"/>
</configuration>
-->

<!-- generated on 2023-07-01 23:22:33 by Eclipse SUMO duarouter Version v1_18_0+0023-ef591d47046
<configuration xmlns:xsi="http://www.w3.org/2001/XMLSchema-instance" xsi:noNamespaceSchemaLocation="http://sumo.dlr.de/xsd/duarouterConfiguration.xsd">

    <input>
        <net-file value="pasto.net.xml.gz"/>
        <route-files value="pasto.motorcycle.trips.xml"/>
    </input>

    <output>
        <output-file value="pasto.motorcycle.trips.xml.tmp"/>
        <alternatives-output value="NUL"/>
        <write-trips value="true"/>
    </output>

    <processing>
        <remove-loops value="true"/>
        <routing-threads value="4"/>
    </processing>

    <time>
        <begin value="0.0"/>
        <end value="1000.0"/>
    </time>

    <report>
        <no-warnings value="true"/>
        <ignore-errors value="true"/>
        <no-step-log value="true"/>
    </report>

</configuration>
-->

<routes xmlns:xsi="http://www.w3.org/2001/XMLSchema-instance" xsi:noNamespaceSchemaLocation="http://sumo.dlr.de/xsd/routes_file.xsd">
    <vType id="mot_motorcycle" vClass="motorcycle"/>
    <trip id="mot0" type="mot_motorcycle" depart="0.00" departLane="best" from="1175566618" to="1175572998"/>
    <trip id="mot1" type="mot_motorcycle" depart="1.00" departLane="best" from="1175565074" to="1175569971"/>
    <trip id="mot2" type="mot_motorcycle" depart="2.00" departLane="best" from="1175569869" to="1175568484"/>
    <trip id="mot3" type="mot_motorcycle" depart="3.00" departLane="best" departSpeed="max" from="1175567704" to="1175575188"/>
    <trip id="mot4" type="mot_motorcycle" depart="4.00" departLane="best" from="1175571158" to="1175575299"/>
    <trip id="mot5" type="mot_motorcycle" depart="5.00" departLane="best" departSpeed="max" from="-824657985" to="1175572451"/>
    <trip id="mot6" type="mot_motorcycle" depart="6.00" departLane="best" from="1175575926" to="1175566909"/>
    <trip id="mot7" type="mot_motorcycle" depart="7.00" departLane="best" from="1175565499" to="1175569564"/>
    <trip id="mot8" type="mot_motorcycle" depart="8.00" departLane="best" from="1175576794" to="1175566473"/>
    <trip id="mot9" type="mot_motorcycle" depart="9.00" departLane="best" from="1175563879" to="1175564626"/>
    <trip id="mot10" type="mot_motorcycle" depart="10.00" departLane="best" from="825917639" to="1175567758"/>
    <trip id="mot11" type="mot_motorcycle" depart="11.00" departLane="best" from="1175563793" to="1175568990"/>
    <trip id="mot12" type="mot_motorcycle" depart="12.00" departLane="best" from="1175566650" to="1175573246"/>
    <trip id="mot13" type="mot_motorcycle" depart="13.00" departLane="best" from="1175573137" to="1175563386"/>
    <trip id="mot14" type="mot_motorcycle" depart="14.00" departLane="best" from="1175573874" to="1175569786"/>
    <trip id="mot15" type="mot_motorcycle" depart="15.00" departLane="best" from="-91859787" to="821504319"/>
    <trip id="mot16" type="mot_motorcycle" depart="16.00" departLane="best" from="1175567093" to="1175563876"/>
    <trip id="mot17" type="mot_motorcycle" depart="17.00" departLane="best" from="1175575062" to="1175574165"/>
    <trip id="mot18" type="mot_motorcycle" depart="18.00" departLane="best" from="1175569873" to="1175571679"/>
    <trip id="mot19" type="mot_motorcycle" depart="19.00" departLane="best" from="1175565730" to="1175564658"/>
    <trip id="mot20" type="mot_motorcycle" depart="20.00" departLane="best" from="1175576322" to="1175568349"/>
    <trip id="mot21" type="mot_motorcycle" depart="21.00" departLane="best" from="1175569218" to="1175568763"/>
    <trip id="mot22" type="mot_motorcycle" depart="22.00" departLane="best" from="1175563711" to="1175573124"/>
    <trip id="mot23" type="mot_motorcycle" depart="23.00" departLane="best" from="1175569373" to="1175571213"/>
    <trip id="mot24" type="mot_motorcycle" depart="24.00" departLane="best" from="1175568701" to="1175571993"/>
    <trip id="mot25" type="mot_motorcycle" depart="25.00" departLane="best" from="1175568869" to="1175564228"/>
    <trip id="mot26" type="mot_motorcycle" depart="26.00" departLane="best" from="1175566448" to="1175570736"/>
    <trip id="mot27" type="mot_motorcycle" depart="27.00" departLane="best" from="1175569533" to="1175577056"/>
    <trip id="mot28" type="mot_motorcycle" depart="28.00" departLane="best" from="1175574355" to="823517067"/>
    <trip id="mot29" type="mot_motorcycle" depart="29.00" departLane="best" from="1175568849" to="1175576479"/>
    <trip id="mot30" type="mot_motorcycle" depart="30.00" departLane="best" from="1175573570" to="1175574866"/>
    <trip id="mot31" type="mot_motorcycle" depart="31.00" departLane="best" from="1175573091" to="1175563968"/>
    <trip id="mot32" type="mot_motorcycle" depart="32.00" departLane="best" from="78335867" to="572106487"/>
    <trip id="mot33" type="mot_motorcycle" depart="33.00" departLane="best" from="1175566988" to="1175564612"/>
    <trip id="mot34" type="mot_motorcycle" depart="34.00" departLane="best" from="1175568423" to="571386803"/>
    <trip id="mot35" type="mot_motorcycle" depart="35.00" departLane="best" from="1175564500" to="1175576054"/>
    <trip id="mot36" type="mot_motorcycle" depart="36.00" departLane="best" from="1175574824" to="1175572834"/>
    <trip id="mot37" type="mot_motorcycle" depart="37.00" departLane="best" departSpeed="max" from="1175574640" to="1175565869"/>
    <trip id="mot38" type="mot_motorcycle" depart="38.00" departLane="best" from="79711795" to="1175573587"/>
    <trip id="mot39" type="mot_motorcycle" depart="39.00" departLane="best" from="1175572527" to="1175563211"/>
    <trip id="mot40" type="mot_motorcycle" depart="40.00" departLane="best" from="1175570515" to="1175574644"/>
    <trip id="mot41" type="mot_motorcycle" depart="41.00" departLane="best" from="1175564144" to="1175566926"/>
    <trip id="mot42" type="mot_motorcycle" depart="42.00" departLane="best" from="1175576295" to="824671351"/>
    <trip id="mot43" type="mot_motorcycle" depart="43.00" departLane="best" from="1175564731" to="1175571676"/>
    <trip id="mot44" type="mot_motorcycle" depart="44.00" departLane="best" from="1175569820" to="1175573014"/>
    <trip id="mot45" type="mot_motorcycle" depart="45.00" departLane="best" departSpeed="max" from="1175568304" to="1175566499"/>
    <trip id="mot46" type="mot_motorcycle" depart="46.00" departLane="best" from="1175563361" to="1175576737"/>
    <trip id="mot47" type="mot_motorcycle" depart="47.00" departLane="best" from="1175571979" to="1175575958"/>
    <trip id="mot48" type="mot_motorcycle" depart="48.00" departLane="best" from="824681921" to="824646400"/>
    <trip id="mot49" type="mot_motorcycle" depart="49.00" departLane="best" from="1175576739" to="1175575064"/>
    <trip id="mot50" type="mot_motorcycle" depart="50.00" departLane="best" from="1175570126" to="1175565995"/>
    <trip id="mot51" type="mot_motorcycle" depart="51.00" departLane="best" from="1175569081" to="1175568062"/>
    <trip id="mot52" type="mot_motorcycle" depart="52.00" departLane="best" from="1175574993" to="1175575702"/>
    <trip id="mot53" type="mot_motorcycle" depart="53.00" departLane="best" departSpeed="max" from="1175563163" to="1175574949"/>
    <trip id="mot54" type="mot_motorcycle" depart="54.00" departLane="best" from="1175563187" to="1175563029"/>
    <trip id="mot55" type="mot_motorcycle" depart="55.00" departLane="best" departSpeed="max" from="1175563632" to="1175574296"/>
    <trip id="mot56" type="mot_motorcycle" depart="56.00" departLane="best" departSpeed="max" from="1175571443" to="1175568897"/>
    <trip id="mot57" type="mot_motorcycle" depart="57.00" departLane="best" from="247462397" to="1175565284"/>
    <trip id="mot58" type="mot_motorcycle" depart="58.00" departLane="best" from="1175576058" to="1175565285"/>
    <trip id="mot59" type="mot_motorcycle" depart="59.00" departLane="best" from="1175563049" to="1175569227"/>
    <trip id="mot60" type="mot_motorcycle" depart="60.00" departLane="best" from="1175566779" to="1175564725"/>
    <trip id="mot61" type="mot_motorcycle" depart="61.00" departLane="best" from="1175563373" to="1175574054"/>
    <trip id="mot62" type="mot_motorcycle" depart="62.00" departLane="best" from="1175577181" to="824894065"/>
    <trip id="mot63" type="mot_motorcycle" depart="63.00" departLane="best" from="1175567851" to="1175574177"/>
    <trip id="mot64" type="mot_motorcycle" depart="64.00" departLane="best" from="1175571344" to="1175565080"/>
    <trip id="mot65" type="mot_motorcycle" depart="65.00" departLane="best" from="1175567202" to="571394378"/>
    <trip id="mot66" type="mot_motorcycle" depart="66.00" departLane="best" from="1175572525" to="824600071"/>
    <trip id="mot67" type="mot_motorcycle" depart="67.00" departLane="best" from="1175564198" to="1175576471"/>
    <trip id="mot68" type="mot_motorcycle" depart="68.00" departLane="best" from="1175575424" to="1175568550"/>
    <trip id="mot69" type="mot_motorcycle" depart="69.00" departLane="best" from="1175567459" to="-247536027"/>
    <trip id="mot70" type="mot_motorcycle" depart="70.00" departLane="best" from="1175567853" to="1175570270"/>
    <trip id="mot71" type="mot_motorcycle" depart="71.00" departLane="best" from="1175574829" to="1175575551"/>
    <trip id="mot73" type="mot_motorcycle" depart="73.00" departLane="best" from="1175569835" to="1175577091"/>
    <trip id="mot74" type="mot_motorcycle" depart="74.00" departLane="best" from="1175573002" to="1175576708"/>
    <trip id="mot75" type="mot_motorcycle" depart="75.00" departLane="best" departSpeed="max" from="1175564958" to="-824631904"/>
    <trip id="mot76" type="mot_motorcycle" depart="76.00" departLane="best" from="1175563573" to="1175574550"/>
    <trip id="mot77" type="mot_motorcycle" depart="77.00" departLane="best" from="1175572185" to="1175572983"/>
    <trip id="mot78" type="mot_motorcycle" depart="78.00" departLane="best" from="1175571796" to="79711756"/>
    <trip id="mot79" type="mot_motorcycle" depart="79.00" departLane="best" from="1175565260" to="247536033"/>
    <trip id="mot80" type="mot_motorcycle" depart="80.00" departLane="best" from="1175562757" to="1175575336"/>
    <trip id="mot81" type="mot_motorcycle" depart="81.00" departLane="best" from="572116093" to="1175563519"/>
    <trip id="mot82" type="mot_motorcycle" depart="82.00" departLane="best" from="1175563048" to="1175567362"/>
    <trip id="mot83" type="mot_motorcycle" depart="83.00" departLane="best" from="1175576717" to="1005535554"/>
    <trip id="mot84" type="mot_motorcycle" depart="84.00" departLane="best" from="1175576322" to="-79091653"/>
    <trip id="mot85" type="mot_motorcycle" depart="85.00" departLane="best" from="1175567446" to="-108452856"/>
    <trip id="mot86" type="mot_motorcycle" depart="86.00" departLane="best" from="1175571527" to="1175576124"/>
    <trip id="mot87" type="mot_motorcycle" depart="87.00" departLane="best" from="1175573203" to="1175566819"/>
    <trip id="mot88" type="mot_motorcycle" depart="88.00" departLane="best" from="1175563366" to="821891979"/>
    <trip id="mot89" type="mot_motorcycle" depart="89.00" departLane="best" from="821504316" to="1175565454"/>
    <trip id="mot90" type="mot_motorcycle" depart="90.00" departLane="best" from="1175570281" to="1175564380"/>
    <trip id="mot91" type="mot_motorcycle" depart="91.00" departLane="best" from="1175568837" to="1175572346"/>
    <trip id="mot92" type="mot_motorcycle" depart="92.00" departLane="best" from="-824644030" to="1175566668"/>
    <trip id="mot93" type="mot_motorcycle" depart="93.00" departLane="best" from="1175569309" to="1175567283"/>
    <trip id="mot94" type="mot_motorcycle" depart="94.00" departLane="best" from="1175572760" to="1175577116"/>
    <trip id="mot95" type="mot_motorcycle" depart="95.00" departLane="best" from="77842356" to="-821958352"/>
    <trip id="mot96" type="mot_motorcycle" depart="96.00" departLane="best" from="1175564355" to="1175566842"/>
    <trip id="mot97" type="mot_motorcycle" depart="97.00" departLane="best" departSpeed="max" from="915505849" to="1175567799"/>
    <trip id="mot98" type="mot_motorcycle" depart="98.00" departLane="best" from="1175563766" to="1175575666"/>
    <trip id="mot99" type="mot_motorcycle" depart="99.00" departLane="best" from="571386839" to="824901335"/>
    <trip id="mot100" type="mot_motorcycle" depart="100.00" departLane="best" from="1175567113" to="571814937"/>
    <trip id="mot101" type="mot_motorcycle" depart="101.00" departLane="best" from="1175567320" to="1175573502"/>
    <trip id="mot102" type="mot_motorcycle" depart="102.00" departLane="best" from="-79711758" to="1175572946"/>
    <trip id="mot103" type="mot_motorcycle" depart="103.00" departLane="best" from="1175572151" to="1175568093"/>
    <trip id="mot104" type="mot_motorcycle" depart="104.00" departLane="best" from="247557158" to="823984316"/>
    <trip id="mot105" type="mot_motorcycle" depart="105.00" departLane="best" from="1175567621" to="1175573001"/>
    <trip id="mot106" type="mot_motorcycle" depart="106.00" departLane="best" departSpeed="max" from="-1001615013" to="1175573071"/>
    <trip id="mot107" type="mot_motorcycle" depart="107.00" departLane="best" from="78046914" to="1175570881"/>
    <trip id="mot108" type="mot_motorcycle" depart="108.00" departLane="best" from="1175575307" to="1175563242"/>
    <trip id="mot109" type="mot_motorcycle" depart="109.00" departLane="best" from="1175571051" to="1175564674"/>
    <trip id="mot110" type="mot_motorcycle" depart="110.00" departLane="best" from="1175565533" to="1175566311"/>
    <trip id="mot111" type="mot_motorcycle" depart="111.00" departLane="best" departSpeed="max" from="1040427902" to="1175567004"/>
    <trip id="mot112" type="mot_motorcycle" depart="112.00" departLane="best" from="1175566606" to="1175570672"/>
    <trip id="mot113" type="mot_motorcycle" depart="113.00" departLane="best" from="1175569525" to="1175571906"/>
    <trip id="mot114" type="mot_motorcycle" depart="114.00" departLane="best" from="1175575273" to="1175565625"/>
    <trip id="mot115" type="mot_motorcycle" depart="115.00" departLane="best" from="1175563182" to="1175569830"/>
    <trip id="mot116" type="mot_motorcycle" depart="116.00" departLane="best" from="1175565121" to="1175568670"/>
    <trip id="mot117" type="mot_motorcycle" depart="117.00" departLane="best" from="1175576272" to="1175565778"/>
    <trip id="mot118" type="mot_motorcycle" depart="118.00" departLane="best" from="1175565459" to="1175576385"/>
    <trip id="mot119" type="mot_motorcycle" depart="119.00" departLane="best" from="1175565990" to="-107286327"/>
    <trip id="mot120" type="mot_motorcycle" depart="120.00" departLane="best" from="1175571168" to="1175564509"/>
    <trip id="mot121" type="mot_motorcycle" depart="121.00" departLane="best" from="1175564909" to="1175568969"/>
    <trip id="mot122" type="mot_motorcycle" depart="122.00" departLane="best" from="1175575396" to="1175575533"/>
    <trip id="mot123" type="mot_motorcycle" depart="123.00" departLane="best" from="1175575055" to="1175574653"/>
    <trip id="mot124" type="mot_motorcycle" depart="124.00" departLane="best" from="-91859787" to="1175569133"/>
    <trip id="mot125" type="mot_motorcycle" depart="125.00" departLane="best" from="1175564281" to="1175569212"/>
    <trip id="mot126" type="mot_motorcycle" depart="126.00" departLane="best" departSpeed="max" from="-572140691" to="1175568437"/>
    <trip id="mot127" type="mot_motorcycle" depart="127.00" departLane="best" from="1175567411" to="1175567105"/>
    <trip id="mot128" type="mot_motorcycle" depart="128.00" departLane="best" from="1175576314" to="-571390941"/>
    <trip id="mot129" type="mot_motorcycle" depart="129.00" departLane="best" from="1175568936" to="1175573408"/>
    <trip id="mot130" type="mot_motorcycle" depart="130.00" departLane="best" from="1175565220" to="1175567632"/>
    <trip id="mot131" type="mot_motorcycle" depart="131.00" departLane="best" from="1175572403" to="1175576496"/>
    <trip id="mot132" type="mot_motorcycle" depart="132.00" departLane="best" from="1175571176" to="-821221637"/>
    <trip id="mot133" type="mot_motorcycle" depart="133.00" departLane="best" from="-79536037" to="1175572092"/>
    <trip id="mot134" type="mot_motorcycle" depart="134.00" departLane="best" from="1175570739" to="1175576077"/>
    <trip id="mot135" type="mot_motorcycle" depart="135.00" departLane="best" from="1175572494" to="1175574357"/>
    <trip id="mot136" type="mot_motorcycle" depart="136.00" departLane="best" from="1175569143" to="1175576240"/>
    <trip id="mot137" type="mot_motorcycle" depart="137.00" departLane="best" from="1175575039" to="1175564266"/>
    <trip id="mot138" type="mot_motorcycle" depart="138.00" departLane="best" from="1175563186" to="1175571263"/>
    <trip id="mot139" type="mot_motorcycle" depart="139.00" departLane="best" from="-79536333" to="1175566915"/>
    <trip id="mot140" type="mot_motorcycle" depart="140.00" departLane="best" from="1175575882" to="824636494"/>
    <trip id="mot141" type="mot_motorcycle" depart="141.00" departLane="best" from="1175566145" to="1175569182"/>
    <trip id="mot142" type="mot_motorcycle" depart="142.00" departLane="best" from="1175575257" to="1175572852"/>
    <trip id="mot143" type="mot_motorcycle" depart="143.00" departLane="best" departSpeed="max" from="-95808223" to="-79536104"/>
    <trip id="mot144" type="mot_motorcycle" depart="144.00" departLane="best" from="1175573928" to="1175574443"/>
    <trip id="mot145" type="mot_motorcycle" depart="145.00" departLane="best" from="1175571022" to="1175564615"/>
    <trip id="mot146" type="mot_motorcycle" depart="146.00" departLane="best" from="1175564334" to="1175565866"/>
    <trip id="mot147" type="mot_motorcycle" depart="147.00" departLane="best" from="1175565228" to="1175566396"/>
    <trip id="mot148" type="mot_motorcycle" depart="148.00" departLane="best" from="1175570131" to="1175565867"/>
    <trip id="mot149" type="mot_motorcycle" depart="149.00" departLane="best" from="1175569992" to="102150866"/>
    <trip id="mot150" type="mot_motorcycle" depart="150.00" departLane="best" from="1175563339" to="1175572944"/>
    <trip id="mot151" type="mot_motorcycle" depart="151.00" departLane="best" from="1175565331" to="1175564135"/>
    <trip id="mot152" type="mot_motorcycle" depart="152.00" departLane="best" from="1175571711" to="1175567123"/>
    <trip id="mot153" type="mot_motorcycle" depart="153.00" departLane="best" from="1175569481" to="1175566730"/>
    <trip id="mot154" type="mot_motorcycle" depart="154.00" departLane="best" from="1175568190" to="1175570748"/>
    <trip id="mot155" type="mot_motorcycle" depart="155.00" departLane="best" from="1175565903" to="1175576935"/>
    <trip id="mot156" type="mot_motorcycle" depart="156.00" departLane="best" from="1175572735" to="1175573549"/>
    <trip id="mot157" type="mot_motorcycle" depart="157.00" departLane="best" from="1175566287" to="1175576313"/>
    <trip id="mot159" type="mot_motorcycle" depart="159.00" departLane="best" from="1175565784" to="1175571563"/>
    <trip id="mot160" type="mot_motorcycle" depart="160.00" departLane="best" from="1175565333" to="1175564303"/>
    <trip id="mot161" type="mot_motorcycle" depart="161.00" departLane="best" from="1175574062" to="-247478969"/>
    <trip id="mot162" type="mot_motorcycle" depart="162.00" departLane="best" from="1175563280" to="1175566432"/>
    <trip id="mot163" type="mot_motorcycle" depart="163.00" departLane="best" from="1175575648" to="571387978"/>
    <trip id="mot164" type="mot_motorcycle" depart="164.00" departLane="best" from="1175565926" to="1175574926"/>
    <trip id="mot165" type="mot_motorcycle" depart="165.00" departLane="best" from="1175571274" to="1175574994"/>
    <trip id="mot166" type="mot_motorcycle" depart="166.00" departLane="best" from="1175568151" to="1175572123"/>
    <trip id="mot167" type="mot_motorcycle" depart="167.00" departLane="best" from="1175574503" to="1175563025"/>
    <trip id="mot168" type="mot_motorcycle" depart="168.00" departLane="best" from="1175566897" to="1175567700"/>
    <trip id="mot169" type="mot_motorcycle" depart="169.00" departLane="best" from="1175571069" to="1175570903"/>
    <trip id="mot170" type="mot_motorcycle" depart="170.00" departLane="best" from="1175569432" to="1175573228"/>
    <trip id="mot171" type="mot_motorcycle" depart="171.00" departLane="best" from="247535959" to="1175575247"/>
    <trip id="mot172" type="mot_motorcycle" depart="172.00" departLane="best" from="1175564996" to="1175563099"/>
    <trip id="mot173" type="mot_motorcycle" depart="173.00" departLane="best" from="1175575374" to="1175568915"/>
    <trip id="mot174" type="mot_motorcycle" depart="174.00" departLane="best" from="1175575274" to="1175574863"/>
    <trip id="mot175" type="mot_motorcycle" depart="175.00" departLane="best" from="1175571491" to="1175575874"/>
    <trip id="mot176" type="mot_motorcycle" depart="176.00" departLane="best" from="1175564827" to="1175565342"/>
    <trip id="mot177" type="mot_motorcycle" depart="177.00" departLane="best" from="571304140" to="-824681921"/>
    <trip id="mot178" type="mot_motorcycle" depart="178.00" departLane="best" from="1175575598" to="1175569592"/>
    <trip id="mot179" type="mot_motorcycle" depart="179.00" departLane="best" from="1175564811" to="1175570105"/>
    <trip id="mot180" type="mot_motorcycle" depart="180.00" departLane="best" from="1175564907" to="1175571225"/>
    <trip id="mot181" type="mot_motorcycle" depart="181.00" departLane="best" from="1175570589" to="1175567306"/>
    <trip id="mot182" type="mot_motorcycle" depart="182.00" departLane="best" from="1175575738" to="1175564194"/>
    <trip id="mot183" type="mot_motorcycle" depart="183.00" departLane="best" from="1175570598" to="79537226"/>
    <trip id="mot184" type="mot_motorcycle" depart="184.00" departLane="best" from="-821513209" to="1175576418"/>
    <trip id="mot185" type="mot_motorcycle" depart="185.00" departLane="best" from="1175575573" to="1175572519"/>
    <trip id="mot186" type="mot_motorcycle" depart="186.00" departLane="best" from="1175564660" to="1175576918"/>
    <trip id="mot187" type="mot_motorcycle" depart="187.00" departLane="best" from="1175572988" to="1175576334"/>
    <trip id="mot188" type="mot_motorcycle" depart="188.00" departLane="best" from="1175563775" to="1175568582"/>
    <trip id="mot189" type="mot_motorcycle" depart="189.00" departLane="best" from="1175569077" to="1175569457"/>
    <trip id="mot190" type="mot_motorcycle" depart="190.00" departLane="best" from="1175567110" to="1175568550"/>
    <trip id="mot191" type="mot_motorcycle" depart="191.00" departLane="best" from="-824625193" to="1175570336"/>
    <trip id="mot192" type="mot_motorcycle" depart="192.00" departLane="best" from="1175572059" to="1175571434"/>
    <trip id="mot193" type="mot_motorcycle" depart="193.00" departLane="best" departSpeed="max" from="-824684666" to="1175563703"/>
    <trip id="mot194" type="mot_motorcycle" depart="194.00" departLane="best" from="1175573245" to="1175563101"/>
    <trip id="mot195" type="mot_motorcycle" depart="195.00" departLane="best" from="108452889" to="1175575873"/>
    <trip id="mot196" type="mot_motorcycle" depart="196.00" departLane="best" departSpeed="max" from="1175567594" to="1175565104"/>
    <trip id="mot197" type="mot_motorcycle" depart="197.00" departLane="best" from="1175575704" to="1175563501"/>
    <trip id="mot198" type="mot_motorcycle" depart="198.00" departLane="best" from="1175574371" to="1175570845"/>
    <trip id="mot199" type="mot_motorcycle" depart="199.00" departLane="best" from="1175571536" to="1175570391"/>
    <trip id="mot200" type="mot_motorcycle" depart="200.00" departLane="best" from="1175569916" to="572145001"/>
    <trip id="mot201" type="mot_motorcycle" depart="201.00" departLane="best" from="1175565092" to="1175572146"/>
    <trip id="mot202" type="mot_motorcycle" depart="202.00" departLane="best" from="1175568978" to="79091818"/>
    <trip id="mot204" type="mot_motorcycle" depart="204.00" departLane="best" from="-572014841" to="1175576823"/>
    <trip id="mot205" type="mot_motorcycle" depart="205.00" departLane="best" from="430650537" to="1175563601"/>
    <trip id="mot207" type="mot_motorcycle" depart="207.00" departLane="best" from="1175575437" to="1175566481"/>
    <trip id="mot208" type="mot_motorcycle" depart="208.00" departLane="best" from="1175565930" to="1175575605"/>
    <trip id="mot209" type="mot_motorcycle" depart="209.00" departLane="best" from="1175567337" to="1175572880"/>
    <trip id="mot210" type="mot_motorcycle" depart="210.00" departLane="best" from="1175565557" to="1175572025"/>
    <trip id="mot211" type="mot_motorcycle" depart="211.00" departLane="best" from="1175576055" to="1175575195"/>
    <trip id="mot212" type="mot_motorcycle" depart="212.00" departLane="best" from="1175564218" to="1175576772"/>
    <trip id="mot213" type="mot_motorcycle" depart="213.00" departLane="best" from="1175571632" to="1175571513"/>
    <trip id="mot214" type="mot_motorcycle" depart="214.00" departLane="best" from="1175574163" to="1175571642"/>
    <trip id="mot215" type="mot_motorcycle" depart="215.00" departLane="best" from="1175564755" to="1175569067"/>
    <trip id="mot216" type="mot_motorcycle" depart="216.00" departLane="best" from="1175575869" to="1175566975"/>
    <trip id="mot217" type="mot_motorcycle" depart="217.00" departLane="best" from="1175563039" to="1175570229"/>
    <trip id="mot218" type="mot_motorcycle" depart="218.00" departLane="best" from="1175570422" to="-79536745"/>
    <trip id="mot219" type="mot_motorcycle" depart="219.00" departLane="best" departSpeed="max" from="824670780" to="1175572086"/>
    <trip id="mot220" type="mot_motorcycle" depart="220.00" departLane="best" from="107286333" to="1175566185"/>
    <trip id="mot221" type="mot_motorcycle" depart="221.00" departLane="best" from="-571386502" to="1175573228"/>
    <trip id="mot222" type="mot_motorcycle" depart="222.00" departLane="best" from="1175564144" to="1175576040"/>
    <trip id="mot223" type="mot_motorcycle" depart="223.00" departLane="best" from="1175570598" to="1175573733"/>
    <trip id="mot224" type="mot_motorcycle" depart="224.00" departLane="best" from="-823517068" to="1175566890"/>
    <trip id="mot225" type="mot_motorcycle" depart="225.00" departLane="best" from="1175570203" to="1175573283"/>
    <trip id="mot226" type="mot_motorcycle" depart="226.00" departLane="best" from="1175571709" to="88747219"/>
    <trip id="mot227" type="mot_motorcycle" depart="227.00" departLane="best" from="79536055" to="1175564070"/>
    <trip id="mot228" type="mot_motorcycle" depart="228.00" departLane="best" from="1175566628" to="1175563244"/>
    <trip id="mot229" type="mot_motorcycle" depart="229.00" departLane="best" departSpeed="max" from="1175571958" to="1175569067"/>
    <trip id="mot230" type="mot_motorcycle" depart="230.00" departLane="best" from="-79091689" to="1175574951"/>
    <trip id="mot231" type="mot_motorcycle" depart="231.00" departLane="best" from="1175568837" to="1175570654"/>
    <trip id="mot232" type="mot_motorcycle" depart="232.00" departLane="best" from="1175572526" to="1175575854"/>
    <trip id="mot233" type="mot_motorcycle" depart="233.00" departLane="best" from="573039340" to="1175575637"/>
    <trip id="mot234" type="mot_motorcycle" depart="234.00" departLane="best" from="1175567764" to="1175565315"/>
    <trip id="mot235" type="mot_motorcycle" depart="235.00" departLane="best" from="572161992" to="1175569637"/>
    <trip id="mot236" type="mot_motorcycle" depart="236.00" departLane="best" from="1175566358" to="-567228565"/>
    <trip id="mot237" type="mot_motorcycle" depart="237.00" departLane="best" from="438346409" to="-48259162"/>
    <trip id="mot238" type="mot_motorcycle" depart="238.00" departLane="best" from="1175564121" to="1175572086"/>
    <trip id="mot239" type="mot_motorcycle" depart="239.00" departLane="best" from="1175571512" to="107286399"/>
    <trip id="mot240" type="mot_motorcycle" depart="240.00" departLane="best" from="1175570050" to="1175565564"/>
    <trip id="mot241" type="mot_motorcycle" depart="241.00" departLane="best" from="1175564793" to="1175565997"/>
    <trip id="mot242" type="mot_motorcycle" depart="242.00" departLane="best" from="1175575574" to="1175565018"/>
    <trip id="mot243" type="mot_motorcycle" depart="243.00" departLane="best" from="824641788" to="-824659720"/>
    <trip id="mot244" type="mot_motorcycle" depart="244.00" departLane="best" from="1175572471" to="-824600075"/>
    <trip id="mot245" type="mot_motorcycle" depart="245.00" departLane="best" from="1175565025" to="1175568977"/>
    <trip id="mot246" type="mot_motorcycle" depart="246.00" departLane="best" from="1175574521" to="1175573539"/>
    <trip id="mot247" type="mot_motorcycle" depart="247.00" departLane="best" from="1175563541" to="1175562937"/>
    <trip id="mot248" type="mot_motorcycle" depart="248.00" departLane="best" from="1175565718" to="1175573559"/>