<?xml version="1.0" encoding="UTF-8"?>

<!-- generated on 2023-07-01 23:24:33.588467 by randomTrips.py v1_18_0+0023-ef591d47046
<configuration>
    <duarouter-routing-threads value="4"/>
    <end value="1000.0"/>
    <fringe-start-attributes value="departSpeed=&quot;max&quot;"/>
    <max-distance value="10000.0"/>
    <min-distance value="4000.0"/>
    <net-file value="pasto.net.xml.gz"/>
    <period value="1.0"/>
    <random value="True"/>
    <remove-loops value="True"/>
    <route-file value="pasto.bus.rou.xml"/>
    <trip-attributes value="departLane=&quot;best&quot;"/>
    <output-trip-file value="pasto.bus.trips.xml"/>
    <prefix value="bus"/>
    <validate value="True"/>
    <vclass value="bus"/>
    <vehicle-class value="bus"/>
    <via-edge-types value="highway.motorway,highway.motorway_link,highway.trunk_link,highway.primary_link,highway.secondary_link,highway.tertiary_link"/>
</configuration>
-->

<!-- generated on 2023-07-01 23:24:25 by Eclipse SUMO duarouter Version v1_18_0+0023-ef591d47046
<configuration xmlns:xsi="http://www.w3.org/2001/XMLSchema-instance" xsi:noNamespaceSchemaLocation="http://sumo.dlr.de/xsd/duarouterConfiguration.xsd">

    <input>
        <net-file value="pasto.net.xml.gz"/>
        <route-files value="pasto.bus.trips.xml"/>
    </input>

    <output>
        <output-file value="pasto.bus.rou.xml"/>
        <alternatives-output value="NUL"/>
    </output>

    <processing>
        <remove-loops value="true"/>
        <routing-threads value="4"/>
    </processing>

    <time>
        <begin value="0.0"/>
        <end value="1000.0"/>
    </time>

    <report>
        <no-warnings value="true"/>
        <ignore-errors value="true"/>
        <no-step-log value="true"/>
    </report>

</configuration>
-->

<routes xmlns:xsi="http://www.w3.org/2001/XMLSchema-instance" xsi:noNamespaceSchemaLocation="http://sumo.dlr.de/xsd/routes_file.xsd">
    <vType id="bus_bus" vClass="bus"/>
    <vehicle id="bus0" type="bus_bus" depart="0.00" departLane="best">
        <route edges="1175566388 1175566387 1175566386 1175575609 1175575610 1175575611 1175569126 1175569127 1175569128 1175569129 1175569130 1175562908 1175562907 1175562900 1175562899 1175563782 1175563781 1175563780 1175563779 1175563778 1175563777 -247536039 1175566583 1175566582 1175566581 1175566580 1175566579 1175566578 1175563796 1175563795 1175563789 1175563788 1175570251 1175570252 1175570253 1175570254 1175570508 1175570509 1175570510 1175570512 1175570513 1175570514 1175570515 90972294 392852643 268533816 380380768 1175570078 1175570079 1175570080 1175569358 1175569359 1175569360 1175569361 1175571261 1175571262 1175571263 1175571264 1175568145"/>
    </vehicle>
    <vehicle id="bus1" type="bus_bus" depart="1.00" departLane="best">
        <route edges="1175562965 1175562964 -894446023 1175568863 1175568864 1175568865 1175568866 1175568867 1175568868 1175568887 1175568888 1175568889 1175568890 1175568891 1175574995 1175574996 1175574997 1175574998 1175574999 1175575000 1175575001 1175569786 1175569787 1175569788 1175569789 1175563637 -247478969 -821913471 1175566844 1175566843 1175566842 1175566841 1175566840 1175566839 1175566838 1175571717 -821884074 -915729855 1175570120 1175570121 1175570122 1175570123 1175570124 1175570125 1175570126 1175570113 1175570114 1175570115 1175570116 1175570290 1175570304 1175570305 1175575754 1175575755 1175575756 1175575757 1175567695 1175565102 1175565101 1175565100 1175567697 1175567696"/>
    </vehicle>
    <vehicle id="bus2" type="bus_bus" depart="2.00" departLane="best">
        <route edges="-571392858 1175565267 1175565266 1175563193 1175563192 1175563191 1175563190 1175563189 1175563188 1175563187 1175563186 1175563185 1175576136 1175576137 825917639 1175569176 1175569177 1175572628 1175572629 1175572614 1175572615 824685314 1175572736 1175572737 1175572738 1175572739 1175572740 1175572741 1175575962 1175575963 1175575964 1175575965 1175575966 1175572752 1175572753 1175572754 1175572755 1175572756 1175569124 1175569125 1175569126 1175569127 1175569128 1175569129 1175569130 1175562908 1175562907 1175562900 1175562899 1175563782 1175563781 1175563780 1175563779 1175563778 1175563777 -247536039 1175566583 1175566582 1175566581 1175566580 1175566579 1175566578 1175563796 1175563795 1175563789 1175563788 1175565212 1175570255 1175570256 1175570262 1175570263 1175573074 1175573075 1175566248"/>
    </vehicle>
    <vehicle id="bus3" type="bus_bus" depart="3.00" departLane="best">
        <route edges="1175577142 1175577143 1175577144 1175577145 1175577146 1175577147 1175577148 1175571455 1175571456 1175571457 1175571458 1175567653 1175567652 1175572950 1175565601 1175565600 1175565599 1175565598 1005776889 1175564228 1175564227 -627028292 1175571246 1175571247 1175571253 1175571254 1175571104 1175571105 1175571106 1175571107 1175571108 1175571109 1175572658 1175572659 1175573007 1175572687 1175572688 1175572689 1175572657 1175570033 1175570034 1175563139 1175563138 1175572796 1175572797"/>
    </vehicle>
    <vehicle id="bus4" type="bus_bus" depart="4.00" departLane="best">
        <route edges="1175576183 1175576184 1175576185 1175576186 1175576187 1175576188 1175576189 1175576190 1175576191 1175576192 1175576194 1175576195 1175576196 1175572106 1175572107 1175572108 1175570127 1175570128 1175571512 572161992 1175575589 1175575590 1175575591 1175570158 1175570159 1175575559 1175575560 1175575561 1175575562 1175575563 1175575564 1175575565 1175575566 1175573182 1175573183 91859814 1175573739 1175573740 1175573741 1175573742 1175573743 1175573744 1175573745 1175573203 1175573204 1175573205 1175573206 1175573207 788613102 1175570953 1175572592 429009169 1175572339 1175572449 1175572450 1175572451 1175572452 1175571161 1175571162"/>
    </vehicle>
    <vehicle id="bus5" type="bus_bus" depart="5.00" departLane="best">
        <route edges="1175565042 1175565041 1175567517 1175567516 1175567515 1175567514 1175567513 1175567506 1175567505 1175562843 1175562842 1175573846 1175573847 1175573848 1175573849 1175573850 1175573851 1175575537 1175573322 1175573323 1175573324 1175573325 1175573904 1175573905 -79091661 1175573182 1175573183 91859814 1175570384 1175570385 1175570386 1175570387 1175570388 1175570389 1175572067 1175572068 1175572069 1175570349 1175570350 1175576505 1175576506 1175575381 1175577175 1175577176 1175572186 1175572187 438345819 1175574485 438345818 1175569943 1175569947 1175573198 1175573199 1175570319 1175570320 1175570321 1175570322 1175570331 1175570332 1175570327 1175574767 1175574768 1175574769 1175574770 1175570396 429966002 1175576637 1175576638 1175576639 1175576640 1175576671 1175576672 1175576673 633067100 1175563724 1175563723 1175563722 1175563721 1175563720 1175563639 1175563638 1175563637 1175563636 1175574969 1175563644 1175563643 1175563642 1175563641 1175563640 1175567429 1175567428 1175567427 1175563651 1175563650 1175563658 1175563657 1175563656 1175574643 1175574644 1175574645 1175574646 -824894667 1175569756 1175569757"/>
    </vehicle>
    <vehicle id="bus6" type="bus_bus" depart="6.00" departLane="best">
        <route edges="1175564123 1175576251 1175576252 1175576253 1175576254 1175570550 1175570554 1175570413 1175570414 1175570415 1175570416 1175570417 1175570418 1175570419 1175570420 893436350 1175576501 1175576502 1175564049 1175564048 1175564047 1175564046 1175576921 1175572478 1175572479 1175572484 1175572485 1175572486 1175572487 1175572488 1175572489 1175572490 1175572480 1175572481 1175572482 1175572483 893393729 1175577092 1175577093 1175577094 1175577095 1175577096 1175577097 1175570246 1175570247 1175570248 1175570244 1175570245 1175573198 1175573199 1175570319 1175570320 1175570321 1175570322 1175570331 1175570332 1175570327 1175574767 1175574768 1175574769 1175574770 1175570396 1175570397 1175570398 1175570393 -429965959 1175572297 1175572298 1175572304 1175572305 1175572306 1175572307 1175572308 1175572309 1175572310 1175572311 1175569695 1175569696 1175569697"/>
    </vehicle>
    <vehicle id="bus7" type="bus_bus" depart="7.00" departLane="best">
        <route edges="1175565689 1175565643 1175565642 1175565641 1175570506 1175570541 1175570542 1175570543 1175570544 1175570545 1175563788 1175565212 1175565211 1175565210 1175565209 1175565208 1175565207 1175565206 1175576822 1175576823 1175576824 1175570960 1175570961 1175570962 1175570963 1175570964 1175570965 1175569465 1175569466 1175569467 1175569468 1175576478 893393728 1175576498 893394229 1175576479 1175576480 1175572069 1175570349 1175570350 1175576505 1175576506 1175575381 627041177 1175577183 1175577184 1175577185 1175570050 1175570051 1175570052 1175570053 1175570054 1175570055 1175570056 1175577162 1175577163 788626933 1175564043 1175564042 1175563534 1175563533 1175563532 1175563531 1175563530 1175563529 1175563528 1175563527 1175563526 1175563525 79092031 821504319 1175576380 1175576381 633053586 79711789 -821504316 1175567340 1175567339 1175567828 1175567827 1175571923 824638102 572102401"/>
    </vehicle>
    <vehicle id="bus8" type="bus_bus" depart="8.00" departLane="best">
        <route edges="1175570727 1175570735 1175570736 1175572357 1175572358 1175564097 1175564096 1175564095 1175564094 1175570427 1175570428 1175570411 1175570412 1175570413 1175570414 1175570415 1175570416 1175570417 1175570418 1175570419 1175570420 893436350 1175576501 1175576502 1175564049 1175564048 1175564047 1175576774 1175576775 1175576776 1175576777 1175572293 1175572294 1175572295 1175572296 91859871 91859826 1175576784 96314896 1175577055 1175577056 1175577057 1175569028 1175569029 1175576796 1175576797 1175570278 1175570279 1175570280 1175570281 1175570282 1175567529 1175567528 1175567527 1175567526 1175567525 1175567524 1175567523 1175567522 1175563931 1175563930 1175567554 1175567553 1175567552 -572161992 1175564470 1175563927 1175563926 1175563925 1175565019 1175572084 1175575961"/>
    </vehicle>
    <vehicle id="bus9" type="bus_bus" depart="9.00" departLane="best">
        <route edges="1175563906 1175563905 1175563904 1175563903 1175563902 1175563901 1175563900 1175577009 1175577010 1175577011 1175577012 1175577013 88740918 1175576333 1175570087 1175570088 1175570089 1175569363 1175569364 1175569358 1175570868 1175570869 1175570877 1175570878 1175570879 1175570880 1175570881 1175570882 1175570883 1175570884 1175570870 1175570871 1175570872 1175570873 1175570874 1175570875 1175570876 1175576255 1175576256 1175572289 1175572290 1175572291 1175572292 1175572293 1175572294 1175572295 1175572296 91859871 91859826 1175576784 96314896 1175577055 1175577056 1175577057 1175577058 1175570384 1175570385 1175570386 1175570387 1175570388 1175570389 1175572067 1175572068 1175572069 1175570349 1175570350 1175576505 1175576506 1175575381 627041177 1175577183 1175577184 1175577185 1175570050 1175570051 1175570052 1175570053 1175570054 1175570055 1175570056 1175577162 1175577163 788626933 1175564043 1175564042 1175563534 1175563533 1175563532 1175563531 1175563514 1175563513 1175563588 1175569591 1175563520"/>
    </vehicle>
    <vehicle id="bus10" type="bus_bus" depart="10.00" departLane="best">
        <route edges="1175567616 1175567615 1175567614 1175566085 1175566084 1175566083 1175566082 1175566116 1175566115 1175566114 1175573483 1175563367 1175563366 1175563365 1175563364 1175563363 1175567598 1175567597 1175567596 1175567595 -626962595 1175573458 1175573459 1175575537 1175573322 1175573323 1175573324 1175573325 1175573904 1175573905 -79091661 1175573182 1175573183 91859814 1175570384 1175570385 1175570386 1175570387 1175570388 1175570389 1175572067 1175572440 1175572441 1175576497 893394230 1175576488 1175576489 1175576481 1175572491 1175572492 1175572493 1175572494 1175572495 1175572496 1175572497 1175570952 1175570943 1175570944 1175570942 1175570945 1175570946 1175571096 1175571097 1175571098 1175571099 1175571100 1175571101 1175571102 1175571103 90972296 1175576551 1175576557 1175576558 1175576559 1175571087 1175571088 1175571089 1175571090 1175574517 1175574518 1175574519"/>
    </vehicle>
    <vehicle id="bus11" type="bus_bus" depart="11.00" departLane="best" departSpeed="max">
        <route edges="-571299726 1175564439 824620506 1175567743 1175567745 -824632027 -571379395 1175567183 1175567182 1175567181 1175567180 1175567179 1175567199 1175567198 1175567197 1175567196 1175567195 1175567194 1175567189 1175567178 1175567177 1175574020 1175574021 1175574022 1175574023 1175571802 1175571803 1175571804 1175571805 1175565143 1175565142 1175565141 1175565140 1175565152 1175565151 1175565150 1175565149 1175565148 1175565147 1175565146 1175565145 1175565139 1175565138 429965959 429965960 1175570400 1175570401 1175570394 1175570323 1175570324 1175570329 1175570699 1175570700 1175570701 1175570702 1175573200 1175573201 1175573202 1175569948 1175569949 1175569950 1175569951 1175569952 1175569953 1175569944 1175569945 1175569946 1175576575 1175576576 1175576577 1175570439 1175570440 1175570441 1175570442 1175570443 1175570444 1175570445 1175570446 1175570447 1175570437 1175570438 1175570251 1175570252 1175572547 1175572548 1175572553 1175572554 1175572555 1175572556 1175572557 1175572558 1175572559 1175572549 1175572550 1175572551 1175572552 627028292 1175563200 1175563199 1175563208 1175563207 1175563206 1175571692 1175571693 1175571694 1175571695 1175571696 1175571697 1175571698"/>
    </vehicle>
    <vehicle id="bus12" type="bus_bus" depart="12.00" departLane="best">
        <route edges="1175567789 1175567788 1175563794 1175563793 1175563792 1175563791 1175563790 1175563801 1175563800 1175563799 1175563798 1175563797 1175563796 1175563795 1175563789 435398045 1175572411 1175572412 1175572413 821611279 1175576591 1175576592 1175569382 1175569383 1175569384 1175571124 1175571125 1175571126 1175571127 1175571143 1175571144 1175571145 1175571146 1175571147 1175571148 1175571149 1175571150 1175571151 1175569367 1175569370 1175569371 1175570319 1175570320 1175570321 1175570322 1175570331 1175570332 1175570327 1175574767 1175574768 1175574769 1175574770 1175570396 1175570397 1175570398 1175570393 -429965959 1175572297 1175572298 1175572304 1175572305 1175572306 1175572307 1175572308 1175572309 1175572310 1175572311 1175572299 1175572300 1175572301 1175572302 1175564753 1175564752 1175564751 1175564750 1175566359 1175566358 1175566357 1175566356 1175575151 1175575152 1175575163 1175575168 1175575169 1175575170 1175575171 1175575172 1175575173 1175575153 1175575154 1175575155 1175575156 1175575157 1175575158 1175575159 1175575160 1175575161 1175575162 1175575164 1175575165 -1001703628"/>
    </vehicle>
    <vehicle id="bus13" type="bus_bus" depart="13.00" departLane="best">
        <route edges="1175568187 1175566896 1175574495 1175574496 1175574497 -79536794 1175568206 1175573193 1175573194 1175573195 1175573196 1175573197 1175574398 1175574399 1175574408 1175574417 1175574427 1175574428 1175574429 1175574430 1175574431 1175574400 1175574401 1175574402 1175574403 1175574404 1175574405 1175574406 1175574407 1175574409 1175574410 1175574411 1175574412 1175574413 1175574414 1175574415 1175574416 1175574418 1175574419 1175574420 1175574421 1175574422 1175574423 1175574424 1175574425 1175574426 1175567027 1175567026 1175577180 1175577181 1175570213 1175570214 1175570498 1175569942 1175569943 1175569947 1175569948 1175569949 1175569950 1175569951 1175569952 1175569953 1175569944 1175569945 1175569946 1175576575 1175576576 1175576577 1175570439 1175570440 1175570441 1175570442 1175570443 1175570444 1175570445 1175570446 1175570447 1175570437 1175570438 1175570251 1175570252 1175570253 1175570254 1175570508 1175570509 1175570510 1175570511 1175570504 1175568707 1175568708 1175568709 1175564237 1175572877 1175572878 1175572879 1175572880 1175572881 1175572882 1175572883 1175572884 1175572885 824309756 1175562895 1175572956 1175565595"/>
    </vehicle>
    <vehicle id="bus14" type="bus_bus" depart="14.00" departLane="best">
        <route edges="1175563374 1175565960 1175565959 1175565958 1175567602 1175567601 1175567600 1175567599 1175567595 -626962595 1175573458 1175573459 1175575537 1175573322 1175573323 1175573324 1175573325 1175573904 1175573905 -79091661 1175573182 1175573183 91859814 1175570384 1175570385 1175570386 1175570387 1175570388 1175570389 1175572067 1175572440 1175572441 1175576497 893394230 1175576488 1175576489 1175576481 1175572491 1175572492 1175572493 1175572494 1175572495 1175572496 1175572497 1175570952 1175570943 1175570944 1175570942 1175570945 1175570946 1175571096 1175571097 1175571098 1175571099 1175571100 1175571101 1175571102 1175571103 90972296 1175576551 1175576557 1175576558 1175576559 1175576560 1175576561 1175576562 1175576563 1175576564 1175576552 1175576553 1175576554 1175576555 1175576556 1006064981 1175569348 1175569349 1175569350 1164047166 1175576925 1175576926 1175576927 1175576928 1175571076 1175571077 1175564373 1175569182 1175569183 1175569184 1175569240"/>
    </vehicle>
    <vehicle id="bus15" type="bus_bus" depart="15.00" departLane="best">
        <route edges="1175572251 1175572119 1175572120 1175572122 580612254 1175563929 -821949413 1175576788 1175576789 1175576790 1175576791 1175576792 1175576793 1175576794 1175576795 1175564004 1175564003 1175564002 1175564001 1175564000 1175564011 1175564010 1175564009 1175564008 1175564007 1175564006 1175564005 1175563999 1175570381 1175572065 1175572066 1175572067 1175572440 1175572441 1175576497 893394230 1175576488 1175576489 1175576481 1175572491 1175572492 1175572493 1175572494 1175572495 1175572496 1175572497 1175570952 1175570943 1175570944 1175570942 1175570945 1175570946 1175571096 1175571097 1175571098 1175571099 1175571100 1175571101 1175571102 1175571103 90972296 1175576551 79535704 -540970679 1175564354 1175574552 1175574553 1175574554 1175564351 1175564350 1175564349 1175564348 1175567577 1175567576 1175567575 1175567574 1175567573 1175566388 1175566387 1175566386 1175566385 1175566384 1175566383 1175566382 1175566381 1175563213 1175563212 1175567861 1175567860 1175567859 1175567858 1175567857 1175564383 1175564382 1175564381 1175564380 1175564379 1175564378 1175567962 1175567964"/>
    </vehicle>
    <vehicle id="bus16" type="bus_bus" depart="16.00" departLane="best">
        <route edges="1175568856 1175568857 1175568848 1175568849 1175568850 1175568887 1175568888 1175568889 1175568890 1175568891 1175574995 1175574996 1175574997 1175574998 1175574999 1175575000 1175575001 1175569786 1175569787 1175569788 1175569789 1175563637 -247478969 -821913471 1175566844 1175566843 1175566842 1175566841 1175566840 1175566839 1175566838 1175571717 -821884074 -915729855 1175570120 1175570121 1175570122 1175570123 1175570124 1175570125 1175570126 1175570113 1175570114 1175570115 1175570116 1175570290 1175570304 1175570305 1175575754 1175575755 1175575756 1175575757 1175575758 1175575759 1175575762"/>
    </vehicle>
    <vehicle id="bus17" type="bus_bus" depart="17.00" departLane="best">
        <route edges="1175569117 1175569118 1175569119 1175569110 1175569111 -627028292 1175571246 1175571247 1175571253 1175571254 1175571255 1175571256 1175571257 1175571258 1175571259 1175571260 1175571248 1175571249 1175571250 1175571251 1175570545 1175563788 1175565212 1175565211 1175565210 1175565209 1175565208 1175565207 1175565206 1175576822 1175576823 1175576824 1175570960 1175570961 1175570962 1175570963 1175570964 1175570965 1175569465 1175569466 1175569467 1175569468 1175576478 893393728 1175576498 893394229 1175576479 1175576480 1175572069 1175570349 1175570350 1175576505 1175576506 1175575381 627041177 1175577183 1175577184 1175577185 1175570050 1175570051 1175570052 1175570053 1175570054 1175570055 1175570056 1175577162 1175577163 788626933 1175564043 1175564042 1175563534 1175563533 1175563532 1175563531 1175563514 1175563513 1175563588 1175569591 1175569592 1175569605"/>
    </vehicle>
    <vehicle id="bus18" type="bus_bus" depart="18.00" departLane="best">
        <route edges="1175571344 1175571345 1175571346 1175571347 1175566744 1175566743 1175566742 1175571351 540970679 -79535704 1175576557 1175576558 1175576559 1175570142 1175570143 142724426 90972275 1175576587 1175576588 1175576589 1175576590 1175570948 1175570949 1175570950 1175572498 1175572499 1175572500 1175572501 1175572502 1175572503 1175572504 1175576478 893393728 1175572460 1175572461 1175572470 1175572471 1175572472 1175572473 1175572474 1175572475 1175572476 1175572477 1175572462 1175572463 1175572464 1175572465 1175572466 1175572467 1175572468 1175572469 1175570546 1175570547 1175570548 1175570549 1175572284 1175576499 1175576500 893436347 1175570769 1175570770 1175570772 1175570773 1175570774 1175570775 1175570776 1175570777 1175570778 1175570779 1175570771 1175571384 1175571385 1175570759 1175570760 1175570762 1175564126 1175564125"/>
    </vehicle>
    <vehicle id="bus19" type="bus_bus" depart="19.00" departLane="best">
        <route edges="-824623876 1175569311 1175569312 1175572988 1175572989 1175572990 1175572981 1175572982 1175572983 1175571258 1175571259 1175571260 1175571248 1175571249 1175571250 1175571251 1175570545 1175563788 1175565212 1175565211 1175565210 1175565209 1175565208 1175565207 1175565206 1175576822 1175576823 1175576824 1175570960 1175570961 1175570962 1175570963 1175570964 1175570965 1175569465 1175569466 1175569467 1175569468 1175576478 893393728 1175576498 893394229 1175576479 1175576480 1175572069 1175570349 1175570350 1175576505 1175576506 1175575381 627041177 1175577183 1175577184 1175577185 1175570050 1175570051 1175570052 1175570053 1175570054 1175570055 1175570056 1175577162 1175577163 788626933 1175564043 1175564042 1175563534 1175563533 1175563532 1175563531 1175563514 1175563513 1175563588 1175563587 1175563596 1175563595 1175563594 1175563593"/>
    </vehicle>
    <vehicle id="bus20" type="bus_bus" depart="20.00" departLane="best">
        <route edges="1175568151 1175572405 1175572406 1175572407 1175572408 1175570088 1175570089 1175569363 1175569364 1175569358 1175570868 1175570869 1175570877 1175570878 1175570879 1175570880 1175570881 1175570882 1175570883 1175570884 1175570870 1175570871 1175570872 1175570873 1175570874 1175570875 1175570876 1175576255 1175576256 1175572289 1175572290 1175572291 1175572292 1175572293 1175572294 1175572295 1175572296 91859871 91859826 1175576784 96314896 1175577055 1175577056 1175577057 1175577058 1175570384 1175570385 1175570386 1175570387 1175570388 1175570389 1175572067 1175572068 1175572069 1175570349 1175570350 1175576505 1175576506 1175575381 627041177 1175577183 1175577184 1175577185 1175570050 1175570051 1175570052 1175570053 1175570054 1175570055 1175570056 1175577162 1175577163 788626933 1175564043 1175564042 1175563534 1175563533 1175563532 1175563531 1175563514 1175563513 1175563588 1175563587 1175563596 1175563595 1175563594 1175563593 1175563592 1175563591 1175563590 1175563589 1175563586 1175563585 1175565736 1175567362 1175567361 1175566461 1175574137 79537352"/>
    </vehicle>
    <vehicle id="bus21" type="bus_bus" depart="21.00" departLane="best">
        <route edges="1175564709 1175570160 1175570161 1175570162 1175570163 1175573576 1175564312 1175564311 1175564310 1175564309 1175564308 1175564307 1175564306 1175575589 1175575590 1175575591 1175570158 1175570159 1175575559 1175575560 1175575561 1175575562 1175575563 1175575564 1175575565 1175575566 1175573182 1175573183 91859814 1175573739 1175573740 1175573741 1175573742 1175573743 1175573744 1175573745 1175573203 1175573204 1175573205 1175573206 1175573207 788613102 1175570953 1175572592 429009169 1175572339 1175572449 1175572450 1175572451 1175572452 1175572453 1175572454 1175572455 1175569912 1175569913 1175569919 1175569920 1175574304 1175574305 1175574306 1175574307 1175574308 1175574309 247536039 1175569884 1175569885 1175569886 1175569887 1175569888 1175569889 1175568749 1175568750 1175572262 1175572263 79537014"/>
    </vehicle>
    <vehicle id="bus22" type="bus_bus" depart="22.00" departLane="best">
        <route edges="1175565267 1175565266 1175563193 1175563192 1175563191 1175563190 1175563189 1175563188 1175563187 1175563186 1175563185 1175576136 1175576137 825917639 1175569176 1175569177 1175572628 1175572629 1175572614 1175572615 824685314 1175572736 1175572737 1175572738 1175572739 1175572740 1175572741 1175575962 1175575963 1175575964 1175575965 1175575966 1175572752 1175572753 1175572754 1175572755 1175572756 1175569124 1175569125 1175569126 1175569127 1175569128 1175569129 1175569130 1175562908 1175562907 1175562900 1175562899 1175563782 1175563781 1175563780 1175563779 1175563778 1175563777 -247536039 1175566583 1175566582 1175566581 1175566580 1175566579 1175566578 1175563796 1175563795 1175563789 1175563788 1175570251 1175570252 1175570253 1175570254 1175570508 1175570509 1175576710 1175576711 1175576714 1175576715 1175576716 1175576717 1175576718 1175576719 1175576720 1175576721 1175576712 1175576713 48483043 48870937 48870938 1175571012 1175571013 1175571016 1175571017 1175571018 1175564103 1175564102 1175564101 1175564100 1175564055 1175564054 1175564053 1175564052 1175564051 1175564050 1175568108 1175568107 1175576062 1175576063 1175571386 1175571387 1175570749 1175570750 1175570751 1175570752 1175570753 1175570754 1175570755 1175570756 1175570757 1175570758 1175567990 1175567989 1175567988 1175567987 1175563951 1175563950 1175563948 1175563947 1175563946 1175563945 1175563944 1175563943 1175563942 1175563941 1175563940 -824898032"/>
    </vehicle>
    <vehicle id="bus23" type="bus_bus" depart="23.00" departLane="best">
        <route edges="1175566428 1175574430 1175574431 1175574400 1175574401 1175574402 1175574403 1175574404 1175574405 1175574406 1175574407 1175574409 1175574410 1175574411 1175574412 1175574413 1175574414 1175574415 1175574416 1175574418 1175574419 1175574420 1175574421 1175574422 1175574423 1175574424 1175574425 1175574426 1175567027 1175567026 1175577180 1175577181 1175570213 1175570214 1175570215 1175570216 1175570217 1175570212 1175569365 1175569366 1175569936 1175569937 1175569938 1175569939 1175569940 1175569941 1175571129 1175571130 1175571123 1175571124 1175570131 1175570132 1175570133 1175570134 1175570135 1175571087 1175571088 1175571089 1175571090 1175571091 1175574552 1175574553 1175574554 1175564351 1175564350 1175564349 1175564348 1175567577 1175567576 1175567575 1175567574 1175567573 1175566388 1175566387 1175566386 1175566385 1175566384 1175566383 1175566382 1175566381 1175563213 1175563212 1175563227 1175563226 1175563225 1175563224 1175563223 1175563211 1175567876 1175567874 1175567873 1175567872 1175567871 1175567870 1175567869 1175567868 1175567867 1175567882 1175567881 1175567880 1175567879 1175567878 1175567877 -572106487 1175572622 1175572623 1175563393 1175563392 1175563391 1175563390 1175565530 1175565529 1175568028"/>
    </vehicle>
    <vehicle id="bus24" type="bus_bus" depart="24.00" departLane="best">
        <route edges="1175564527 1175564526 1175564525 1175569138 1175569123 1175569124 1175569125 1175569126 1175569127 1175569128 1175569129 1175569130 1175569131 1175569132 1175569133 1175569263 1175569264 1175569857 1175569858 1175569859 1175569860 1175572353 1175572354 1175572355 1175572356 1175569871 1175569872 1175569873 1175569874 1175573217 1175573218 821611279 1175576591 1175576592 1175569382 1175569383 1175569384 1175571124 1175571125 1175571126 1175571127 1175571143 1175571144 1175571145 1175571146 1175571147 1175571148 1175571149 1175571150 1175571151 1175569367 1175569370 1175569371 1175569372 1175569373 1175574828 1175574829 1175574840 1175574851 1175574854 1175574855 1175574856 1175574857 1175574858 1175574859 1175574464 1175574465 1175563439 1175563438 1175563437 1175563436 1175563435 1175563434 1175563433 1175563432 1175563431 1175563430 1175563429 1175563428 1175563443 1175563442 1175563441 1175563440 1175563427 1175563426 1175567248 1175567247 1175567071 1175563611 1175563610 1175563609 1175563608"/>
    </vehicle>
    <vehicle id="bus25" type="bus_bus" depart="25.00" departLane="best">
        <route edges="1175573623 1175573624 1175573625 1175563509 1175563508 1175563507 1175563506 1175563505 1175563504 1175566496 1175566495 1175574414 1175574415 1175574416 1175574418 1175574419 1175574420 1175574421 1175574422 1175574423 1175574424 1175574425 1175574426 1175567027 1175567026 1175577180 1175577181 1175570213 1175570214 1175570498 1175569942 1175569943 1175569947 1175569948 1175569949 1175569950 1175569951 1175569952 1175569953 1175569944 1175569945 1175569946 1175576575 1175576576 1175576577 1175570439 1175570440 1175570441 1175570442 1175570443 1175570444 1175570445 1175570446 1175570447 1175570437 1175570438 1175569912 1175569913 1175569919 1175569920 1175569921 1175569922 1175569923 1175569924 1175569925 1175569914 1175569915 1175569916 1175569917 1175569918 1175572842 1175572843 1175572844 1175572845 1175572846 1175565405 1175565404 1175563360 1175563359 1175563358 1175565376 1175565365"/>
    </vehicle>
    <vehicle id="bus26" type="bus_bus" depart="26.00" departLane="best" departSpeed="max">