<?xml version="1.0" encoding="UTF-8"?>

<!-- generated on 2023-07-01 23:23:50.037087 by randomTrips.py v1_18_0+0023-ef591d47046
<configuration>
    <allow-fringe.min-length value="1000.0"/>
    <duarouter-routing-threads value="4"/>
    <end value="1000.0"/>
    <fringe-start-attributes value="departSpeed=&quot;max&quot;"/>
    <lanes value="True"/>
    <max-distance value="10000.0"/>
    <min-distance value="3000.0"/>
    <net-file value="pasto.net.xml.gz"/>
    <period value="1.0"/>
    <random value="True"/>
    <remove-loops value="True"/>
    <route-file value="pasto.passenger.rou.xml"/>
    <trip-attributes value="departLane=&quot;best&quot;"/>
    <output-trip-file value="pasto.passenger.trips.xml"/>
    <prefix value="car"/>
    <validate value="True"/>
    <vehicle-class value="passenger"/>
    <via-edge-types value="highway.motorway,highway.motorway_link,highway.trunk_link,highway.primary_link,highway.secondary_link,highway.tertiary_link"/>
</configuration>
-->

<!-- generated on 2023-07-01 23:23:42 by Eclipse SUMO duarouter Version v1_18_0+0023-ef591d47046
<configuration xmlns:xsi="http://www.w3.org/2001/XMLSchema-instance" xsi:noNamespaceSchemaLocation="http://sumo.dlr.de/xsd/duarouterConfiguration.xsd">

    <input>
        <net-file value="pasto.net.xml.gz"/>
        <route-files value="pasto.passenger.trips.xml"/>
    </input>

    <output>
        <output-file value="pasto.passenger.rou.xml"/>
        <alternatives-output value="NUL"/>
    </output>

    <processing>
        <remove-loops value="true"/>
        <routing-threads value="4"/>
    </processing>

    <time>
        <begin value="0.0"/>
        <end value="1000.0"/>
    </time>

    <report>
        <no-warnings value="true"/>
        <ignore-errors value="true"/>
        <no-step-log value="true"/>
    </report>

</configuration>
-->

<routes xmlns:xsi="http://www.w3.org/2001/XMLSchema-instance" xsi:noNamespaceSchemaLocation="http://sumo.dlr.de/xsd/routes_file.xsd">
    <vType id="car_passenger" vClass="passenger"/>
    <vehicle id="car0" type="car_passenger" depart="0.00" departLane="best" departSpeed="max">
        <route edges="88370695 1175577008 1175577128 1175577129 1175577130 1175577131 1175577132 1175572526 98356942 1175576981 1175576982 1175572279 1175572280 1175572281 1175572282 1175572283 1175570568 1175570569 1175570574 1175570575 1175570576 1175570577 1175570578 1175570579 1175570580 1175570581 1175570570 1175570571 1175570572 1175570573 48483045 48870924 48870923 1175576721 1175576712 1175570640 1175570641 1175570650 1175570651 1175570652 1175570653 1175570654 1175570655 1175570656 1175570657 1175570642 1175570643 1175570644 1175570645 1175570646 1175570647 1175570648 1175570649 1175572273 1175572274 1175572275 1175572276 1175572277 1175572278 1175570391 1175572481 1175572482 1175572483 893393728 1175576498 893394229 1175576479 1175576480 1175572069 1175570349 1175570350 1175576505 1175576506 1175575381 627041177 1175577183 1175577184 1175577185 1175570050 1175570051 1175570052 1175570053 1175570054 1175570055 1175570056 1175577162 1175577163 788626933 1175564043 1175564042 1175563534 1175563533 1175563532 1175563531 1175563514 1175563513 1175563588 1175563587 1175563596 1175563595 1175563594 1175563593 1175563592 1175563591 1175563590 1175563589 1175563586 1175563585 1175565736 1175567362 1175567361 1175565794 1175575016 1175575017"/>
    </vehicle>
    <vehicle id="car1" type="car_passenger" depart="1.00" departLane="best">
        <route edges="1175571783 1175571784 1175571785 1175571254 1175571255 1175571256 1175571257 1175571258 1175571259 1175571260 1175571248 1175571249 1175571250 1175571251 1175571252 1005800376 1175572270 1175572271 1175572272 1175573561 1175573562 1175573563 1175573564 1175573565 1175576843 1175576844 1175572334 1175572335 1175573208 1175573209 1175573210 1175573211 1175573212 1175572321 1175572322 1175572324 1175572325 1175572326 1175572327 1175572328 1175572329 1175572323 376279915 1175570281 1175570282 1175567529 1175567528 1175567527 1175567526 1175567525 1175567524 1175567523 1175567522 1175563931 1175567546 1175567545 1175567544 1175571998 1175575335"/>
    </vehicle>
    <vehicle id="car2" type="car_passenger" depart="2.00" departLane="best">
        <route edges="247462322 1175569593 1175569594 247462325 1175566293 1175563591 1175563590 1175563589 1175563586 1175563585 1175565740 1175565739 1175565738 1175565737 1175566793 1175566792 1175566791 1175566811 1175566810 1175566809 1175566808 1175566807 1175569650 1175574795 1175575114 1175575115 1175575116 1175575117 1175575118 1175575119 1175575120 1175575121 1175575154 1175575155 1175575156 1175575157 1175575158 1175575159 1175575160 1175575161 1175575162 1175575164 1175564659 1175564658 821882274 1175563919 1175563918 1175563911 1175563910 1175563500 1175563499 1175563498 1175566349 1175566348 1175566347 1175566346"/>
    </vehicle>
    <vehicle id="car3" type="car_passenger" depart="3.00" departLane="best">
        <route edges="48258664 1175570740 1175570741 1175570742 1175570743 1175570744 47997595 1175576238 1175576239 821883642 1175570569 1175570574 1175570575 1175570576 1175570577 1175570578 1175570579 1175570580 1175570581 1175570570 1175570571 1175570572 1175570573 48483045 1175571398 1175571399 1175571400 1175571401 1175570504 1175570505 1175570506 1175570541 1175570542 1175570543 1175572548 1175572553 1175572554 1175572555 1175572556 1175572557 1175572558 1175565673 1175565672 1175565671 1175565670 1175565669 1175565668 1175565667 1175565666 1175572791 1175572792 1175572793 1175572794 1175572795 1175572796 1175572797 1175565498 1175575890 1175575891 1175575892 1175575893 1175575894 1175575895 1175569212 1175569213 1175569214 1175569215 1175569216 1175563171 1175563170 1175563169 1175563176 1175569075"/>
    </vehicle>
    <vehicle id="car4" type="car_passenger" depart="4.00" departLane="best">
        <route edges="1175567365 1175575043 1175575044 -79535704 1175576557 1175576558 1175576559 1175570142 1175570143 1175571092 1175571093 1175571094 1175571095 1175569382 1175569383 1175569384 1175571124 1175571125 1175571126 1175571127 1175571143 1175571144 1175571145 1175571146 1175571147 1175571148 1175571149 1175571150 1175571151 1175569367 1175569370 1175569371 1175569372 1175569373 1175569374 1175569375 1175569376 1175569368 1175569369 1175570054 1175570055 1175570056 1175577162 1175577163 788626933 1175564043 1175564042 1175563534 1175563533 1175563532 1175563531 1175563530 1175563529 1175563528 1175563527 1175563526 1175563525 79092031 821504319 1175576380 1175576381 1175575882 1175575883 1175575884 1175575885 1175575886 1175575887 1175575888 1175575889 1175576387 1175576393 1175576394 1175576395 1175576396 1175576397 1175576398 1175576399 1175576388 1175576389 1175576390 1175576391 1175576392 1175575767 1175575768 1175575771 1175572227 1175572228 1175572229 1175572230 1175572231 1175572226 1175563992 1175563991 823928974 1175570333 1175570334 -823928973 1175567229 1175575217 1175575218 1175571633 1175571635"/>
    </vehicle>
    <vehicle id="car5" type="car_passenger" depart="5.00" departLane="best" departSpeed="max">
        <route edges="1175575865 1175575866 824631912 1175576544 824631911 1175573894 1175573895 1175572247 1175572248 1175572249 1175572250 1175572251 1175572119 1175572120 1175572122 580612254 1175563929 -821949413 1175576788 1175576789 1175576790 1175576791 1175576792 1175576793 1175576794 1175576795 1175564004 1175564003 1175564002 1175564001 1175564000 1175564011 1175564010 1175564009 1175564008 1175564007 1175564006 1175564005 1175563999 1175570381 1175572065 1175572066 1175572067 1175572440 1175572441 1175576497 893394230 1175576488 1175576489 1175576481 1175572491 1175572492 1175572493 1175572494 1175572495 1175572496 1175572497 1175570952 1175570943 1175570944 1175570942 1175570945 1175570946 1175571096 1175571097 1175571098 1175571099 1175571100 1175571101 1175571102 1175571103 90972296 1175576551 1175576557 1175576558 1175576559 1175570142 1175570143 1175571092 1175571093 1175571094 1175571095 1175569382"/>
    </vehicle>
    <vehicle id="car6" type="car_passenger" depart="6.00" departLane="best">
        <route edges="1175563976 1175563975 1175563974 1175563973 1175567687 1175567686 1175567685 1175567682 1175567681 1175567680 1175567679 1175567678 1175567677 1175570287 1175570288 1175570289 -632005250 1175570285 1175570286 630039298 1175563898 1175563897 1175563896 1175575428 1175575429 1175575430 1175575431 1175575432 1175575433 1175575434 1175575435 1175575436 1175575437 1175570164 1175570165 821504313 821504312 821504311 1175569595 1175569596 1175569597 1175569598 1175569599 1175569600 1175569601 1175569602 1175569603 1175569604 1175570500 1175570501 1175577179 1175577165 1175577166 1175577167 1175570202 1175570203 1175570204 1175570205 1175570206 1175570207 1175570208 1175570209 1175570210 1175577187 1175575379 1175575380 1175570057 1175576503 1175573247 1175573248 1175573249 1175573250 1175573251 1175573252 1175576601 1175576602 1175572460 1175572461 1175572470 1175572471 1175572472 1175572473 1175572474 1175572475 1175572476 1175572477 1175572462 1175572463 1175572464 1175572465 1175572466 1175572467 1175572468 1175572469 1175570546 1175570547 1175570548 1175570549 1175576284 1175576285 1175576288 1175570632"/>
    </vehicle>
    <vehicle id="car7" type="car_passenger" depart="7.00" departLane="best">
        <route edges="1175571850 1175571851 1175563425 1175563424 1175566939 1175566938 1175566937 1175566936 1175566935 -79536648 1175567427 1175563713 1175563712 1175563711 1175563710 1175563709 1175563708 1175563707 1175566532 1175567063 1175567062 1175567061 1175567060 1175567059 -79535904 247535958 1175571052 1175571063 1175571064 1175571065 1175571066 1175571067 1175571068 1175571042 1175571043 1175567035 1175567034 1175567033 1175567032 1175574434 1175574435 1175574535 1175574536 1175574537 1175574614 1175574615 1175571127 1175571128 1175571129 1175571130 1175576571 1175576572 1175576573 1175576574 1175576575 1175576576 1175576577 1175570439 1175570440 1175570441 1175570442 1175570443 1175570444 1175570445 1175570446 1175570447 1175570437 1175570438 1175570251 1175570252 1175570253 1175570254 1175570508 1175570509 1175570510 1175570511 1175570504 1175568707 1175568708 1175568709 1175564237 1175572877 1175572878 1175572879 1175572880 1175572881 1175572882 1175572883 1175572884 1175564562 1175564561"/>
    </vehicle>
    <vehicle id="car8" type="car_passenger" depart="8.00" departLane="best">
        <route edges="1175568210 1175568208 1175568207 1175568206 1175573193 1175573194 1175573195 1175573196 1175573197 1175574398 1175574399 1175574408 1175574417 1175574427 1175574428 1175574429 1175574430 1175574431 1175574400 1175574401 1175574402 1175574403 1175574404 1175574405 1175574406 1175574407 1175574409 1175574410 1175574411 1175574412 1175574413 1175574414 1175574415 1175574416 1175574418 1175574419 1175574420 1175574421 1175574422 1175574423 1175574424 1175574425 1175574426 1175567027 1175567026 1175577180 1175577181 1175570213 1175570214 1175570215 1175570216 1175570217 1175570212 1175569365 1175569366 1175569936 1175569937 1175569938 1175569939 1175569940 1175569941 1175571129 1175571130 1175571123 1175571124 1175570131 1175570132 1175570133 1175570134 1175570135 1175571087 1175571088 1175571089 1175571090 1175571091 1175574552 1175574553 1175574554 1175564351 1175564350 1175564349 1175564348 1175567577 1175567576 1175567575 1175567574 1175567573 1175566388 1175566387 1175566386 1175566385 1175566384 1175566383 1175566382 1175566381 1175563213 1175563212 1175563227 1175563226 1175563225 1175563224 1175563223 1175563211 1175567876 1175567874 1175567873 1175567872 1175567871 1175567870 1175567869 1175567868 1175567867 1175567882 1175567881 1175567880 1175567879 1175567878 1175567877 -572106487 1175572622 1175572623 1175563393 1175563392 1175563391 1175563390 1175565530 1175565529 1175571539 1175571540 571369765"/>
    </vehicle>
    <vehicle id="car9" type="car_passenger" depart="9.00" departLane="best">
        <route edges="-73573116 1175564284 1175564283 1175564282 1175564142 1175564141 1175564140 1175569361 1175569362 1175569363 1175569364 1175569358 1175570868 1175570869 1175570877 1175570878 1175570879 1175570880 1175570881 1175570882 1175570883 1175570884 1175570870 1175570871 1175570872 1175570873 1175570874 1175570875 1175572285 1175572286 1175572287 1175572288 1175564049 1175564048 1175564047 1175564046 1175576921 1175572478 1175572479 1175572484 1175572485 1175572486 1175572487 1175572488 1175572489 1175570926 1175570927 1175570928 1175570929 1175570930 1175570931 1175570932 1175570933 1175570924 1175570925 1175573873 1175573874 1175573875 1175573863"/>
    </vehicle>
    <vehicle id="car10" type="car_passenger" depart="10.00" departLane="best">
        <route edges="1175568147 1175568146 1175572403 1175572404 1175571263 1175572408 1175570088 1175570089 1175569363 1175569364 1175569358 1175570868 1175570869 1175570877 1175570878 1175570879 1175570880 1175570881 1175570882 1175570883 1175570884 1175570870 1175570871 1175570872 1175570873 1175570874 1175570875 1175570876 1175576255 1175576256 1175572289 1175572290 1175572291 1175572292 1175572293 1175572294 1175572295 1175572296 91859871 91859826 1175576784 96314896 1175577055 1175577056 1175577057 1175577058 1175570384 1175570385 1175570386 1175570387 1175570388 1175570389 1175572067 1175572068 1175572069 1175570349 1175570350 1175576505 1175576506 1175575381 1175577175 1175577176 1175572186 1175572187 438345819 1175574485 438345818 1175569943 1175569947 1175573198"/>
    </vehicle>
    <vehicle id="car11" type="car_passenger" depart="11.00" departLane="best">
        <route edges="-247478969 -247478967 1175566693 1175566692 1175567466 1175567465 1175567464 1175567463 1175565150 1175565149 1175565148 1175565147 1175565146 1175565145 1175565139 1175565138 429965959 429965960 1175570400 1175570401 1175570394 1175570323 1175570324 1175570329 1175570699 1175570700 1175570701 1175570702 1175573200 1175573201 1175573202 1175569948 1175576603 1175576604 1175576605 1175576606 1175576607 1175576608 1175576601 1175576602 1175572460 1175572461 1175572470 1175572471 1175572472 1175572473 1175572474 1175572475 1175572476 1175572477 1175572462 1175572463 1175572464 1175572465 1175572466 1175572467 1175570917 1175570918 1175570919 1175570920 1175570912 1175571273 1175571274 1175571275 1175571276 1175572388 1175572389 1175572390 1175572391 1005544294 247553445 1005544293 1175570894 1175570895 1175570896 1175570897"/>
    </vehicle>
    <vehicle id="car12" type="car_passenger" depart="12.00" departLane="best">
        <route edges="1175576101 1175576102 1175576103 1175564122 1175564121 1175564120 1175564119 1175564118 1175564117 1175564116 1175564115 1175564114 1175564113 1175570410 1175570421 1175570422 1175570423 1175570424 1175570425 1175570426 1175570427 1175570428 1175570411 1175570412 1175570413 1175570414 1175570415 1175570416 1175570417 1175570418 1175570419 1175570420 893436350 1175576501 1175576502 1175564049 1175564048 1175564047 1175576774 1175576775 1175576776 1175576777 1175572293 1175572294 1175572295 1175572296 91859871 91859826 1175576784 96314896 1175577055 1175577056 1175577057 1175569028 1175569029 1175576796 1175576797 1175570278 1175570279 1175570280 1175570281 1175570282 1175567529 1175567528 1175567527 1175567526 1175567525 1175567524 1175567523 1175567522 1175563931 1175563930 1175575586 1175575587 1175567543 1175567542 1175567541 -821944351 1175566181 1175566180 -821944350 1175567298 1175564873 1175571938 1175571939"/>
    </vehicle>
    <vehicle id="car13" type="car_passenger" depart="13.00" departLane="best">
        <route edges="1175567762 1175567761 1175567760 1175567759 1175569308 1175569309 1175569310 1175569311 1175569312 1175572988 1175572989 1175572990 1175572981 1175572982 1175572983 1175571258 1175571259 1175571260 1175571248 1175571249 1175571250 1175571251 1175570545 435398045 1175572411 1175572412 1175572413 821611279 1175576591 1175576592 1175569382 1175569383 1175569384 1175571124 1175571125 1175571126 1175571127 1175571143 1175571144 1175571145 1175571146 1175571147 1175571148 1175571149 1175571150 1175571151 1175569367 1175569370 1175569371 1175569372 1175569373 1175569374 1175569375 1175568570 1175568569 1175574944 1175574945 1175570187 1175570188 1175569571 1175569572 1175569573 167671622 1175569430 1175569431 1175569441 1175569449 1175569453 1175569454 1175569455 1175569456 1175569457 1175569432 1175569433 1175569434 1175569435 1175569436 1175569437 1175569438 1175569439 1175569440 1175569442 1175569443 1175569444 1175569445 1175569636 1175569637 1175569638 1175569639 1175569640 1175569641 1175566791 1175566811 1175567021 1175567020"/>
    </vehicle>
    <vehicle id="car14" type="car_passenger" depart="14.00" departLane="best" departSpeed="max">
        <route edges="-819566326 1175567275 1175571277 1175571280 1175571281 1175571282 1175571283 1175571284 1175571285 1175571286 1175571278 1175571279 1175571290 1175565857 1175565856 1175565855 1175565854 1002973601 1175572166 1175572171 1175572172 1175572173 1175572174 1175572175 1175572176 1175572167 1175572168 1175572169 1175572170 1175566046 1175566045 1175566044 1175566043 1175566042 1175566041 1175570106 1175570107 1175570108 1175568380 1175573883 1175573884 1175573885 1175573886 1175576810 1175576782 1175576783 1175576784 96314896 1175577055 1175577056 1175577057 1175577058 1175570384 1175570385 1175570386 1175570387 1175570388 1175570389 1175572067 1175572440 1175572441 1175576497 893394230 1175576488 1175576489 893393729 1175577092 1175577093 1175577094 1175577095 1175577096 436179698 1074501793 96321160 1175571034 1175571035 1175571036 1175571037 1175571038 1175571039 1175569954 1175569955 1175569956 1175569957 1175569926 1175569927 1175569928 1175569929 1175569930 1175569931 1175569932 1175569933 1175569934 1175575131 1175575132 1175575133 1175575134 1175575135 1175574622 1175574623"/>
    </vehicle>
    <vehicle id="car15" type="car_passenger" depart="15.00" departLane="best">
        <route edges="-78518709 1175570426 1175570427 1175570428 1175570411 1175570412 1175570413 1175570414 1175570415 1175570416 1175570417 1175570418 1175570419 1175570420 893436350 1175576501 1175576502 1175564049 1175564048 1175564047 1175564046 1175576921 1175572478 1175572479 1175572484 1175572485 1175572486 1175572487 1175572488 1175572489 1175572490 1175572480 1175572481 1175572482 1175572483 893393729 1175577092 1175577093 1175577094 1175577095 1175577096 1175577097 1175570246 1175570247 1175570248 1175570244 1175570245 1175573198 1175573199 1175570319 1175570320 1175570321 1175570322 1175570331 1175570332 1175570327 1175574767 1175574768 1175574769 1175574770 1175570396 429966002 1175576637 1175576638 1175576639 1175576640 1175576671 1175576672 1175576673 633067100 1175563724 1175563723 1175563722 1175563721 1175563720 1175563639 1175574253 1175566971"/>
    </vehicle>
    <vehicle id="car16" type="car_passenger" depart="16.00" departLane="best">
        <route edges="1175569016 1175569017 1175569018 1175569003 1175569004 1175568996 1175568997 1175571055 1175571056 1175571057 1175571058 1175571059 1175571060 1175571061 1175571062 1164047165 1006064980 1175570136 1175570137 1175570138 1175570139 1175570140 1175570141 1175570142 1175570143 142724426 90972275 1175576587 1175576588 1175576589 1175576590 1175570948 1175570949 1175570950 1175572498 1175572499 1175572500 1175572501 1175572502 1175572503 1175572504 1175576478 893393728 1175576498 893394229 1175576479 1175576480 1175572069 1175572070 1175572063 1175570390 626987871 1175570356 1175570270 1175570271 1175570272 1175570273 1175570274 1175570275 1175570276 1175570277 376279915 1175570281 1175570282 79091661 1175566275 1175566274 1175565825 1175565824 1175565823 1175565822 1175567500 1175565923 1175565922 626962595 1175575637 1175575638 1175575639 1175575640 1175575641 1175569319 1175569320 1175569321 1175569322 1175565944 1175573694 1175573695 1175573696 1175573697 1175573698 1175573699 1175575853 1175566242 1175567617"/>
    </vehicle>
    <vehicle id="car17" type="car_passenger" depart="17.00" departLane="best">
        <route edges="1175568995 1175568905 1175568906 1175568907 1175562963 107286333 1175569004 1175568996 1175568997 1175571055 1175571056 1175571057 1175571058 1175571059 1175571060 1175571061 1175571062 1164047165 1006064980 1175570136 1175570137 1175570138 1175570139 1175570140 1175570141 1175570142 1175570143 142724426 90972275 1175576587 1175576588 1175576589 1175576590 1175570948 1175570949 1175570950 1175572498 1175572499 1175572500 1175572501 1175572502 1175572503 1175572504 1175576478 893393728 1175576498 893394229 1175576479 1175576480 1175572069 1175572070 1175572063 1175570390 626987871 1175570356 1175570270 1175570271 1175570272 1175570273 1175570274 1175570275 1175570276 1175570277 376279915 1175570281 1175570282 79091661 1175566275 1175566274 1175565825 1175565824 1175565823 1175565822 1175567500 1175565923 1175565922 626962595 1175575637 1175575638 1175575639 1175575640 -79091862 1175573683"/>
    </vehicle>
    <vehicle id="car18" type="car_passenger" depart="18.00" departLane="best">
        <route edges="1175564413 1175568544 1175568543 1175568542 1175568541 1175568540 1175568539 1175568538 1175576981 1175576982 1175572279 1175572280 1175572281 1175572282 1175572283 1175570568 1175570569 1175570574 1175570575 1175570576 1175570577 1175570578 1175570579 1175570580 1175570581 1175570570 1175570571 1175570572 1175570573 48483045 48870924 48870923 1175576721 1175576712 1175570640 1175570641 1175570650 1175570651 1175570652 1175570653 1175570654 1175570655 1175570656 1175570657 1175570642 1175570643 1175570644 1175570645 1175570646 1175570647 1175570818 1175570819 1175570820 1175569030 1175569031 1175569025 1175569026 1175569027 1175569028 1175569029 1175576796 1175576797 1175570278 1175570279 1175570280 1175570281 1175570282 1175567529 1175567528 1175567527 1175567526 1175567525 1175567524 1175567523 1175567522 1175563931 1175567546 1175567545"/>
    </vehicle>
    <vehicle id="car19" type="car_passenger" depart="19.00" departLane="best">
        <route edges="1175573167 1175575445 1175568124 1175568123 1175564096 1175564095 1175564094 1175570427 1175570428 1175570411 1175570412 1175570413 1175570414 1175570415 1175570416 1175570417 1175570418 1175570419 1175570420 893436350 1175576501 1175576502 1175564049 1175564048 1175564047 1175564046 1175576921 1175572478 1175572479 1175572484 1175572485 1175572486 1175572487 1175572488 1175572489 1175572490 1175572480 1175572481 1175572482 1175572483 893393729 1175577092 1175577093 1175577094 1175577095 1175577096 1175577097 1175570246 1175570247 1175570248 1175570244 1175570245 1175573198 1175573199 1175570319 1175570320 1175575128"/>
    </vehicle>
    <vehicle id="car20" type="car_passenger" depart="20.00" departLane="best">
        <route edges="1175567109 1175567108 1175567107 1175567106 1175569038 1175569039 1175576558 1175576559 1175570142 1175570143 142724426 90972275 1175576587 1175576588 1175576589 1175576590 1175570948 1175570949 1175570950 1175572498 1175572499 1175572500 1175572501 1175572502 1175572503 1175572504 1175576478 893393728 1175576498 893394229 1175576479 1175576480 1175572069 1175572070 1175572063 1175570390 626987871 1175570356 1175570357 1175570358 1175570359 1175570360 1175570361 1175570362 1175570351 1175570352 1175570353 1175570354 1175565891 1175565890 1175573261 1175573262 1175573263"/>
    </vehicle>
    <vehicle id="car21" type="car_passenger" depart="21.00" departLane="best">
        <route edges="1175572459 1175569958 1175569959 1175573852 1175573853 1175573854 1175572501 1175572502 1175572503 1175572504 1175576478 893393728 1175572460 1175572461 1175572470 1175572471 1175572472 1175572473 1175572474 1175572475 1175572476 1175572477 1175572462 1175572463 1175572464 1175572465 1175572466 1175572467 1175572468 1175572469 1175570546 1175570547 1175570548 1175570549 1175572284 1175576499 1175576500 893436347 1175570769 1175570770 1175570772 1175570773 1175570774 1175570775 1175570776 1175570777 1175570778 1175570779 1175570771 1175571384 1175571385 1175570759 1175570760 1175570762 1175570763 48375936 1175568119 1175568118 1175568117 -88520221 1002536414 1175576055 1175576257 1175576258 1175576259 1175570091 1175570092 1175570093 1175570094"/>
    </vehicle>
    <vehicle id="car22" type="car_passenger" depart="22.00" departLane="best">
        <route edges="1175567652 1175572420 1175572421 -824309756 1175565539 1175565538 1175565537 1175565536 1175565535 1175565534 1175565533 1175565532 1175565531 1175571160 1175562867 1175562866 1175562865 1175570505 1175570506 1175570541 1175570542 1175570543 1175570544 1175570545 435398045 1175572411 1175572412 1175572413 821611279 1175576591 1175576592 1175569382 1175569383 1175569384 1175571124 1175571125 1175571126 1175571127 1175571143 1175571144 1175571145 1175575019 1175575020 1175575021 1175574948 1175574949 1175574950 1175574951 1175574952 1175574953 1175564177 1175564176 1175564201 1175564200 1175564199 1175564198 1175564197 1175564196 1175564186 1175564175 1175574115 1175574116 1175563016 -79536380 1175569810"/>
    </vehicle>
    <vehicle id="car23" type="car_passenger" depart="23.00" departLane="best">
        <route edges="1175575742 1175575743 1175575744 1175575745 1175563470 1175563989 1175563988 1175563987 1175563986 -823928974 1175570338 1175570339 1175565090 1175565089 1175565094 1175565093 1175565092 1175565091 1175567693 1175567692 1175567690 1175568195 1175568194 1175568193 1175568192 1175568191 1175568202 1175568201 1175568200 1175568199 1175568198 1175568197 1175568196 1175568190 1175568189 1175567787 1175567786 1175567785 1175567784 1175567783 1175567782 1175567781 1175568183 1175568182 1175568181 -79092031 1175569595 1175569596 -751950397 1175565740 1175565739 1175574398 1175574399 1175574408 1175574417 1175574427 1175574428 1175574429 1175574430 1175574431 1175574400 1175574401 1175574402 1175574403 1175574404 1175574405 1175574406 1175574407 1175574875 1175574876 1175574877 1175574878 1175574879 1175574880 1175574881 1175574818 1175574819 1175574820 1175574821 1175574822 1175574823 1175574824 1175566772 1175566771 1175565151 1175565150 1175565149 1175565148 1175565147 1175565146 1175565145 1175565139 1175565138 429965959"/>
    </vehicle>
    <vehicle id="car24" type="car_passenger" depart="24.00" departLane="best" departSpeed="max">
        <route edges="-824631457 1175575213 1175575214 824360502 1175570303 1175570116 1175570117 1175570118 1175570119 1175572105 1175572109 1175568190 1175568189 1175567787 1175567786 1175567785 1175567784 1175567783 1175567782 1175567781 1175568183 1175568182 1175568181 -79092031 1175569595 1175569596 1175569597 1175569598 1175569599 1175569600 1175569601 1175569602 1175569603 1175569604 1175570500 1175570501 1175577179 1175577165 1175577166 1175577167 1175570202 1175570203 1175570204 1175570205 1175570206 1175570207 1175570211 1175570213 1175570214 1175570498 1175569942 1175569943 1175569947 1175569948 1175569949 1175569950 1175569951 1175569952 1175569953 1175569944 1175569945 1175569946 1175576575 1175576576 1175576577 1175570439 1175570440 1175570441 1175570442 1175570443 1175570444 1175570445 1175570446 1175570447 1175570437 1175570438 1175570251 1175570252 1175570253 1175568701 1175568702 1175570521"/>
    </vehicle>
    <vehicle id="car25" type="car_passenger" depart="25.00" departLane="best">
        <route edges="1175571800 1175571801 1175569208 -108452874 1175568761 1175568762 1175575724 1175575725 1175575726 1175575727 1175575728 1175565602 1175565601 1175565600 1175565599 1175565598 1005776889 1175564228 1175564227 1175563200 1175563199 1175563208 1175563207 1175563206 1175563205 1175563204 1175563203 1175565435 1175565434 1175565433 1175565442 1175565441 1175565440 1175565439 1175565438 1175565437 1175569089 1175569090 1175569091 1175569092 1175569093 1175563173 1175563242 1175563241 1175565549 1175565548 1175565547 1175565546 1175565545 1175565544 1175565543 1175565542 1175568461 1175568460 1175568459"/>
    </vehicle>
    <vehicle id="car26" type="car_passenger" depart="26.00" departLane="best">
        <route edges="1175563021 1175563020 1175568938 1175568939 1175568940 1175563064 1175563063 894445538 1175568836 894445545 1175571075 1175571059 1175571060 1175571061 1175571062 1164047165 1006064980 1175570136 1175570137 1175570138 1175570139 1175570140 1175570141 1175570142 1175570143 142724426 90972275 1175576587 1175576588 1175576589 1175576590 1175570948 1175570949 1175570950 1175570951 1175570952 1175570223 1175570224 1175570225 1175570226 1175570227 1175570228 1175570229 1175570230 1175570231 1175570937 1175570938 1175570939 1175570940 1175570941 1175573208 1175573209 1175573210 1175570967 1175570968 1175570971 1175570972 1175570973 1175570974 1175570975 1175570976 87804371 1175570658 1175570659 1175570660 1175576748 1175576749"/>
    </vehicle>
    <vehicle id="car27" type="car_passenger" depart="27.00" departLane="best">