<?xml version="1.0" encoding="UTF-8"?>

<!-- generated on 2023-07-01 23:25:15.124669 by randomTrips.py v1_18_0+0023-ef591d47046
<configuration>
    <duarouter-routing-threads value="4"/>
    <end value="1000.0"/>
    <fringe-start-attributes value="departSpeed=&quot;max&quot;"/>
    <max-distance value="10000.0"/>
    <min-distance value="4000.0"/>
    <net-file value="pasto.net.xml.gz"/>
    <period value="1.0"/>
    <random value="True"/>
    <remove-loops value="True"/>
    <route-file value="pasto.truck.rou.xml"/>
    <trip-attributes value="departLane=&quot;best&quot;"/>
    <output-trip-file value="pasto.truck.trips.xml"/>
    <prefix value="tru"/>
    <validate value="True"/>
    <vclass value="truck"/>
    <vehicle-class value="truck"/>
    <via-edge-types value="highway.motorway,highway.motorway_link,highway.trunk_link,highway.primary_link,highway.secondary_link,highway.tertiary_link"/>
</configuration>
-->

<!-- generated on 2023-07-01 23:25:08 by Eclipse SUMO duarouter Version v1_18_0+0023-ef591d47046
<configuration xmlns:xsi="http://www.w3.org/2001/XMLSchema-instance" xsi:noNamespaceSchemaLocation="http://sumo.dlr.de/xsd/duarouterConfiguration.xsd">

    <input>
        <net-file value="pasto.net.xml.gz"/>
        <route-files value="pasto.truck.trips.xml"/>
    </input>

    <output>
        <output-file value="pasto.truck.rou.xml"/>
        <alternatives-output value="NUL"/>
    </output>

    <processing>
        <remove-loops value="true"/>
        <routing-threads value="4"/>
    </processing>

    <time>
        <begin value="0.0"/>
        <end value="1000.0"/>
    </time>

    <report>
        <no-warnings value="true"/>
        <ignore-errors value="true"/>
        <no-step-log value="true"/>
    </report>

</configuration>
-->

<routes xmlns:xsi="http://www.w3.org/2001/XMLSchema-instance" xsi:noNamespaceSchemaLocation="http://sumo.dlr.de/xsd/routes_file.xsd">
    <vType id="tru_truck" vClass="truck"/>
    <vehicle id="tru0" type="tru_truck" depart="0.00" departLane="best">
        <route edges="1175566994 1175566993 1175566992 1175566991 1175569480 1175569481 1175569494 1175569495 1175569496 1175569497 1175569482 1175569483 1175569484 1175569485 1175569486 1175569487 1175569488 1175569489 1175569490 1175569491 1175569492 1175569493 1175566678 1175566677 1175566676 1175566675 1175566674 1175566673 429965962 1175570394 1175570323 1175570324 1175570329 1175570699 1175570700 1175570701 1175570702 1175573200 1175573201 1175573202 1175569948 1175569949 1175569950 1175569951 1175569952 1175569953 1175569944 1175569945 1175569946 1175576575 1175576576 1175576577 1175570439 1175570440 1175570441 1175570442 1175570443 1175570444 1175570445 1175570446 1175570447 1175570437 1175570438 1175569912 1175569913 1175569919 1175569920 1175569921 1175569922 1175569923 1175569924 1175569925 1175569914 1175569915 1175569916 1175569917 1175569918 1175575890 1175575891 1175575892 1175575893 1175575894 1175575895 1175569212 1175569213 1175569214 1175569215 1175569216 824671351 1175569087 1175569088 1175569089 1175569090"/>
    </vehicle>
    <vehicle id="tru1" type="tru_truck" depart="1.00" departLane="best">
        <route edges="1175566339 1175566338 1175566337 1175566336 1175575240 1175575241 1175575242 1175575243 1175575244 1175575245 1175575246 1175576368 1175567387 1175574399 1175574408 1175574417 1175574427 1175574428 1175574429 1175574430 1175574431 1175574400 1175574401 1175574402 1175574403 1175574404 1175574405 1175574406 1175574407 1175574409 1175574410 1175574411 1175574412 1175574413 1175574414 1175574415 1175574416 1175574418 1175574419 1175574420 1175574421 1175574422 1175574423 1175574424 1175574425 1175574426 1175567027 1175567026 1175577180 1175577181 1175570499 1175565049 1175571000 1175571001 1175571002 1175571003 1175571004 1175576606 1175576607 1175576608 1175576601 1175576602 1175572460 1175572461 1175572470 1175572471 1175572472 1175572473 1175572474 1175572475 1175572476 1175572477 1175572462 1175572463 1175572464 1175572465 1175572466 1175572467 1175572468 1175572469 1175570546 1175570547 1175570548 1175570549 1175572284 1175576499 1175576500 893436347 1175570769 1175570770 1175570772 1175570773 1175570774 1175570775 1175570776 1175570777 1175570778 1175570779 1175570771 1175571384 1175571385 1175571388 1175571389 1175571390 1175571391 1175571392 1175571393 1175571394 1175571395 1175571386 1175571387 1175570749 1175570750 1175570751 1175570752 1175570753 1175570754 1175570755 1175570756 1175570757 1175570758 1175567990 1175567989 1175567988 1175567987 1175572255 1175572256 1175572257 1175572258 -1002561246 1175568225"/>
    </vehicle>
    <vehicle id="tru2" type="tru_truck" depart="2.00" departLane="best">
        <route edges="1175567438 1175565879 1175567462 1175565970 1175566171 1175566170 1175566169 1175566168 1175570107 1175570108 1175568380 1175573883 1175573884 1175573885 1175573886 1175576810 1175576782 1175576783 1175576784 96314896 1175577055 1175577056 1175577057 1175577058 1175570384 1175570385 1175570386 1175570387 1175570388 1175570389 1175572067 1175572068 1175572069 1175570349 1175570350 1175576505 1175576506 1175575381 1175577175 1175577176 1175572186 1175572187 1175577169 1175577170 1175568570 1175568569 1175574944 1175574945 1175570187 1175570188 1175569571 1175569572 1175569573 167671622 1175569430 1175569431 1175569441 1175569449 1175569453 1175569454 1175569455 1175569456 1175569457 1175569432 1175569433 1175569434 1175569435 1175569436 1175569437 1175569438 1175569439 1175569440 1175569442 1175569443 1175569444 1175569445 1175569636 1175569637 1175569638 1175569639 1175569640 1175569641 1175566791 1175566811 1175566810 1175566809 1175566808 1175566807 1175569650 1175574795 1175575114 1175575115 1175575116 1175575117 1175575118 1175575119 1175575120 1175575121 1175575154 821880830"/>
    </vehicle>
    <vehicle id="tru3" type="tru_truck" depart="3.00" departLane="best">
        <route edges="1175563037 1175563034 1175563033 1175563032 1175563031 1175563030 1175568289 1175568288 1175568287 1175562966 1175562965 1175562964 -894446023 1175568863 1175568864 1175568865 1175568866 1175568867 1175568868 1175569812 1175569813 1175569814 1175569815 247535959 247535958 1175564175 1175564174 1175576662 1175576673 1175576674 1175576675 1175576667 1175576668 1175576669 1175576670 429965959 429965960 1175570400 429965963 1175574460 1175574461 1175574462 1175574463 1175574464 1175574465 1175574466 1175574467 1175569430 1175569431 1175569441 1175569449 1175569453 1175569454 1175569455 1175569456 1175569457 1175569432 1175569433 1175569434 1175569435 1175569436 1175569437 1175569438 1175569439 1175569440 1175569442 1175569443 1175569444 1175569445 1175569446 1175569447 1175569448 1175569450 1175569451 1175569452 1175573189 1175573190 1175573191 1175573192 751950397 1175563526 1175563525 79092031 821504319 1175576380 1175576381 633053586 1175575360 1175575361 1175576347 1175576348 1175576349 1175576350 1175576351 1175576352 1175572085"/>
    </vehicle>
    <vehicle id="tru4" type="tru_truck" depart="4.00" departLane="best">
        <route edges="1175573455 1175573862 1175573863 1175566120 1175573715 1175570934 1175570935 1175570936 1175570963 1175570964 1175570965 1175569465 1175569466 1175569467 1175569468 1175576478 893393728 1175576498 893394229 1175576479 1175576480 1175572069 1175570349 1175570350 1175576505 1175576506 1175575381 627041177 1175577183 1175577184 1175577185 1175570050 1175570051 1175570052 1175570053 1175570054 1175570055 1175570056 1175577162 1175577163 788626933 1175564043 1175564042 1175563534 1175563533 1175563532 1175563531 1175563530 1175563529 1175563528 1175563527 1175563526 1175563525 79092031 821504319 1175576380 1175576381 1175575882 1175575883 1175575884 1175575885 1175575886 1175575887 1175575888 1175575889 1175576387 1175576393 1175576394 1175576395 1175576396 1175576397 1175576398 1175576399 1175576388 1175576389 1175576390 1175576391 1175576392 1175575767 1175575768 1175575771 1175564577 1175564576 1175564575 1175564574 1175564573 1175565071 1175565070 1175565069 1175569561 1175569562 1175564450 1175564449"/>
    </vehicle>
    <vehicle id="tru5" type="tru_truck" depart="5.00" departLane="best">
        <route edges="1175563378 1175563377 1175563376 1175563375 1175563374 1175565960 1175565959 1175565958 1175567602 1175567601 1175567600 1175567599 1175567595 -626962595 1175573458 1175573459 1175575537 1175573322 1175573323 1175573324 1175573325 1175573904 1175573905 -79091661 1175573182 1175573183 91859814 1175570384 1175570385 1175570386 1175570387 1175570388 1175570389 1175572067 1175572440 1175572441 1175576497 893394230 1175576488 1175576489 893393729 1175577092 1175577093 1175577094 1175577095 1175577096 436179698 1074501793 96321160 1175571034 1175571035 1175571036 1175571037 1175571038 1175571039 1175569954 1175569955 1175569956 1175569957 1175569926 1175569927 1175569928 1175569929 1175569930 1175569931 1175569932 1175569933 1175569934 1175569935 247535990 1175571043 1175571044 1175571045"/>
    </vehicle>
    <vehicle id="tru6" type="tru_truck" depart="6.00" departLane="best">
        <route edges="1175563107 1175563106 1175563105 1175562935 1175562934 1175562945 1175562944 1175562943 1175562942 1175562941 1175568871 1175562963 107286333 1175569004 1175568996 1175568997 1175571055 1175571056 1175571057 1175571058 1175571059 1175571060 1175571061 1175571062 1164047165 1006064980 1175570136 1175570137 1175570138 1175570139 1175570140 1175570141 1175570142 1175570143 142724426 90972275 1175576587 1175576588 1175576589 1175576590 1175570948 1175570949 1175570950 1175572498 1175572499 1175572500 1175572501 1175572502 1175572503 1175572504 1175576478 893393728 1175576498 893394229 1175576479 1175576480 1175572069 1175572070 1175572063 1175570390 626987871 1175570356 1175570357 1175570358 1175570359 1175570360 1175570361 1175570362 1175570351 1175570352 1175570353 1175570354 1175570355 1175568378 1175568377 1175568376 1175568375 1175568374 1175568373 1175568372 -821948040 -821948039 1175567565 1175567564 1175567563 1175567562 1175567561 1175567560 1175567559 1175573246 1175571472"/>
    </vehicle>
    <vehicle id="tru7" type="tru_truck" depart="7.00" departLane="best">
        <route edges="1175563673 1175563672 1175563666 1175563665 1175563693 1175563692 1175563691 1175563690 821903512 1175575466 1175574187 1175575469 1175575470 1175575077 1175575078 1175568850 1175562989 1175562988 1175562987 1175562986 1175562985 -561134173 1175571042 1175571043 1175567035 1175567034 1175567033 1175567032 1175574434 1175574435 1175574535 1175574536 1175574537 1175574614 1175574615 1175571127 1175571128 1175571129 1175571130 1175576571 1175576572 1175576573 1175576574 1175576575 1175576576 1175576577 1175570439 1175570440 1175570441 1175570442 1175570443 1175570444 1175570445 1175570446 1175570447 1175570437 1175570438 1175570251 1175570252 1175570253 1175570254 1175570508 1175570509 1175576710 1175576711 1175576714 1175576715 1175576716"/>
    </vehicle>
    <vehicle id="tru8" type="tru_truck" depart="8.00" departLane="best">
        <route edges="1175576225 1175568091 1175576474 1175576475 -1002548498 1175564120 1175564119 1175564118 1175564117 1175564116 1175564115 1175564114 1175564113 1175570410 1175570421 1175570422 1175570423 1175570424 1175570425 1175570426 1175570427 1175570428 1175570411 1175570412 1175570413 1175570414 1175570415 1175570416 1175570417 1175570418 1175570419 1175570420 893436350 1175576501 1175576502 1175564049 1175564048 1175564047 1175576774 1175576775 1175576776 1175576777 1175572293 1175572294 1175572295 1175572296 91859871 91859826 1175576784 96314896 1175577055 1175577056 1175577057 1175577058 1175570384 1175570385 1175570386 1175570387 1175570388 1175570389 1175572067 1175572068 1175572069 1175570349 1175570350 1175576505 1175576506 1175575381 627041177 1175577183 1175577184 1175577185 1175570050 1175570051 1175570052 1175570053 1175570054 1175570055 1175570056 1175577162 1175577163 788626933 1175564043 1175564042 1175563534 1175563533 1175563532 1175563531 1175563514 1175563513 1175563588 1175569591 1175569592 1175569605 1175569606"/>
    </vehicle>
    <vehicle id="tru9" type="tru_truck" depart="9.00" departLane="best">
        <route edges="1175567692 1175567690 1175568195 1175568194 1175568193 1175568192 1175568191 1175568202 1175568201 1175568200 1175568199 1175568198 1175568197 1175568196 1175572110 1175572111 1175572112 1175572113 1175572114 1175572115 1175572116 1175572106 1175572107 1175572108 1175570127 1175570128 1175570129 -821949413 1175568370 -821948996 1175570044 1175570045 1175570046 869736348 1175569322 1175572013 1175572014 1175572015 1175575663 1175568575 1175568576 1175573578 1175566247 1175575909"/>
    </vehicle>
    <vehicle id="tru10" type="tru_truck" depart="10.00" departLane="best">
        <route edges="1175572876 1175569352 1175569353 1175569354 1175569355 1175565282 1175565281 572106487 1175575982 1175575983 1175575984 1175575985 1175575986 1175575987 1175575972 1175575973 1175575974 1175575975 1175575976 1175575977 1175575978 1175575979 1175575981 1175569122 1175569134 1175569135 1175569136 1175569137 1175569138 1175569123 1175569124 1175569125 1175569126 1175569127 1175569128 1175569129 1175569130 1175569131 1175569132 1175569133 1175569263 1175569264 1175569857 1175569858 1175569859 1175569860 1175572353 1175572354 1175572355 1175572356 1175569871 1175569872 1175569873 1175569874 1175573217 1175573218 821611279 1175576591 1175576592 1175569382 1175569383 1175569384 1175571124 1175571125 1175571126 1175571127 1175571143 1175571144 1175571145 1175571146 1175571147 1175571148 1175571149 1175571150 1175571151 1175570144 1175570145 1175570146 1175576616 1175576617"/>
    </vehicle>
    <vehicle id="tru11" type="tru_truck" depart="11.00" departLane="best">
        <route edges="1175563311 1175563310 -108452874 1175568761 1175568762 1175575724 1175575725 1175575726 1175575727 1175575728 1175565602 1175565601 1175568743 -824309756 1175565539 1175565538 1175565537 1175565536 1175565535 1175565534 1175565533 1175565532 1175565531 1175571160 1175562867 1175562866 1175562865 1175570505 1175570506 1175570541 1175570542 1175570543 1175570544 1175570545 1175563788 1175565212 1175565211 1175565210 1175565209 1175565208 1175565207 1175565206 1175576822 1175576823 1175576824 1175570960 1175570961 1175570962 1175570963 1175570964 1175570965 1175569465 1175569466 1175569467 1175569468 1175576478 893393728 1175576498 1175576490 1175576491 1175576492 1175576493 1175576494"/>
    </vehicle>
    <vehicle id="tru12" type="tru_truck" depart="12.00" departLane="best">
        <route edges="1175574860 1175574861 1175564919 1175575421 1175575422 1175575008 1175575009 1175575236 1175575237 1175569480 1175569481 1175569494 1175569495 1175569496 1175569497 1175569482 1175569483 1175569484 1175569485 1175569486 1175569487 1175569488 1175569489 1175569490 1175569491 1175569492 1175569493 1175574466 1175574467 -167671622 1175575063 1175575064 1175575065 1175575066 1175567027 1175567026 1175577180 1175577181 1175570499 1175565049 1175571000 1175571001 1175571002 1175571003 1175571004 1175571005 1074501792 1074501791 1175572509 1175572510 1175572511 1175572512 1175572513 1175570950 1175570951 1175570952 1175570223 1175570224 1175570225 1175570226 1175570227 1175570228 1175570229 1175570230 1175570231 1175570937 1175570938 1175570939 1175572592 1175577022 1175577023 1175577024 1175577025 1175577026 1175575729 1175575730 1175575731 1175575732 1175570667 1175570668 1175570669"/>
    </vehicle>
    <vehicle id="tru13" type="tru_truck" depart="13.00" departLane="best">
        <route edges="1175567752 1175567751 1175566119 1175566118 1175566117 1175566116 1175566115 1175566114 1175573483 1175563367 1175563366 1175563365 1175563364 1175563363 1175567598 1175567597 1175567596 1175567595 -626962595 1175573458 1175573459 1175575537 1175573322 1175573323 1175573324 1175573325 1175573904 1175573905 -79091661 1175573182 1175573183 91859814 1175573739 1175573740 1175573741 1175573742 1175573743 1175573744 1175573745 1175573203 1175573204 1175573205 1175573206 1175573207 788613102 1175570953 1175572592 429009169 1175572339 1175572449 1175572450 1175572451 1175572452 1175572453 1175572454 1175572455 1175569912 1175569913 1175569919 1175569920 1175574304 1175574305 1175574306 1175574307 1175574308 1175574309 247536039 1175569884 1175569885 1175569886 1175569887 1175569888 1175569889 1175568749 1175568750 1175568757 1175568758 1175563219 1175563218 1175563217 1175563216 1175563215 1175563214 1175563213 1175563212 1175567861 1175567860 1175567859 1175567858 1175567857 1175564383 1175564382 1175564381 1175564380 1175564379 1175564378 1175567962 1175576079"/>
    </vehicle>
    <vehicle id="tru14" type="tru_truck" depart="14.00" departLane="best">
        <route edges="1175568223 1175565119 1175565118 1175576100 1175576101 1175576102 1175576103 1175564122 1175564121 1175564120 1175564119 1175564118 1175564117 1175564116 1175564115 1175564114 1175564113 1175570410 1175570421 1175570422 1175570423 1175570424 1175570425 1175570426 1175570427 1175570428 1175570411 1175570412 1175570413 1175570414 1175570415 1175570416 1175570417 1175570418 1175570419 1175570420 893436350 1175576501 1175576502 1175564049 1175564048 1175564047 1175564046 1175576921 1175572478 1175572479 1175572484 1175572485 1175572486 1175572487 1175572488 1175572489 1175572490 1175572480 1175572481 1175572482 1175572483 893393729 1175577092 1175577093 1175577094 1175577095 1175577096 436179698 1074501793 96321160 1175571034 1175571035 1175571036 1175571037 1175571038 1175571039 1175569954 1175569955 1175569956 1175569957 1175569926 1175569927 1175569928 1175569929 1175569930 1175569931 1175569932 1175569933 1175569934 1175569935 247535990 1175564176 561134173 1175568864 1175568865 1175568866 1175568867 1175568868 1175562971 1175567127 1175567126 1175567435 1175567434 1175567433 -821903508 1175567430 1175569774 1175569775 1175569776 1175569777 1175569749 1175569750 1175569756 1175569757 1175569758 1175569759 1175569760 1175569761 1175569762 1175569763 1175569751 1175569752 1175569753 1175569754 1175569755 1175574490"/>
    </vehicle>
    <vehicle id="tru15" type="tru_truck" depart="15.00" departLane="best">
        <route edges="1175571493 1175571494 1175563496 1175563495 1175572208 1175572209 1175572210 1175571613 1175571614 1175571615 1175571616 1175571617 1175567693 1175567692 1175567690 1175568195 1175568194 1175568193 1175568192 1175568191 1175568202 1175568201 1175568200 1175568199 1175568198 1175568197 1175568196 1175568190 1175568189 1175567787 1175567786 1175567785 1175567784 1175567783 1175567782 1175567781 1175568183 1175568182 1175568181 -79092031 1175569595 1175569596 1175569597 1175569598 1175569599 1175569600 1175569601 1175569602 1175569603 1175569604 1175570500 1175570501 1175577179 1175577165 1175577166 1175577167 1175570202 1175570203 1175570204 1175570205 1175570206 1175570207 1175570211 1175570213 1175570214 1175570498 1175569942 1175569943 1175569947 1175569948 1175569949 1175569950 1175569951 1175569952 1175569953 1175569944 1175569945 1175569946 1175576575 1175576576 1175576577 1175570439 1175570440 1175570441 1175570442 1175570443 1175570444 1175570445 1175570446 1175570447 1175574566 1175574567 1175574568 1175574685 1175574686 -247536039 1175574458 1175574459 1175569901 1175574030"/>
    </vehicle>
    <vehicle id="tru16" type="tru_truck" depart="16.00" departLane="best">
        <route edges="1175574608 1175563571 1175563570 1175563569 1175563568 1175563567 1175563566 1175569446 1175575010 1175575011 1175574428 1175574429 1175574430 1175574431 1175574400 1175574401 1175574402 1175574403 1175574404 1175574405 1175574406 1175574407 1175574409 1175574410 1175574411 1175574412 1175574413 1175574414 1175574415 1175574416 1175574418 1175574419 1175574420 1175574421 1175574422 1175574423 1175574424 1175574425 1175574426 1175567027 1175567026 1175577180 1175577181 1175570213 1175570214 1175570498 1175569942 1175569943 1175569947 1175569948 1175569949 1175569950 1175569951 1175569952 1175569953 1175569944 1175569945 1175569946 1175576575 1175576576 1175576577 1175570439 1175570440 1175570441 1175570442 1175570443 1175570444 1175570445 1175570446 1175570447 1175570437 1175570438 1175570251 1175570252 1175570253 1175570254 1175570508 1175570509 1175570510 1175570511 1175570504 1175568707 1175568708 1175568709 1175564237 1175572877 1175572878 1175572879 1175572880 1175572881 1175572882 1175572883 1175572884 1175572885 824309756 1175562895 1175562894 102150857 1175572944 1175575723 1175567654 1175565682 1175567663 1175567662 1175567661 1175568763"/>
    </vehicle>
    <vehicle id="tru17" type="tru_truck" depart="17.00" departLane="best">
        <route edges="1175564393 1175564392 1175564391 1175564390 1175564389 1175564388 1175564387 1175567911 1175567910 824662368 1175572214 1175572215 1175572220 1175572221 1175572222 1175572223 1175572224 1175572225 1175572216 1175572217 1175572218 1175572219 1175567690 1175568195 1175568194 1175568193 1175568192 1175568191 1175568202 1175568201 1175568200 1175568199 1175568198 1175568197 1175568196 1175568190 1175568189 1175567787 1175567786 1175567785 1175567784 1175567783 1175567782 1175567781 1175568183 1175568182 1175568181 -79092031 1175569595 1175569596 -751950397 1175565740 1175565739 1175574398 1175574399 1175574408 1175574417 1175574427 1175574428 1175574429 1175574430 1175574431 1175574400 1175574401 1175574402 1175574403 1175574404 1175574405 1175574406 1175574407 1175574409 1175574410 1175574411 1175574412 1175574413 1175574414 1175574415 1175574416 1175574418 1175574419 1175574420 79536367 1175569431 1175566374 1175574676 1175566679 1175566678 1175566677 1175566676 1175566675 1175566674 1175566673 429965962 1175570394 1175570395 1175570396 429966002 1175576637 1175576638 1175576639 1175576640 1175576671 1175572312 1175572313 1175571040 1175571041 1175571052 1175571063 1175571064 1175571065 1175571066 1175571067 1175571068 1175571042 1175571043 1175571044 1175571045 1175576631 107286368 1175562949 1175562948 1175562947 1175562946 1175568905 1175568906"/>
    </vehicle>
    <vehicle id="tru18" type="tru_truck" depart="18.00" departLane="best">
        <route edges="1175570288 1175572204 1175572205 1175570119 1175572105 1175572109 1175572110 1175572111 1175572112 1175572113 1175572114 1175572115 1175572116 1175572106 1175572107 1175572108 1175570127 1175570128 1175570129 -821949413 1175568370 -821948996 1175570044 1175570045 1175570046 1175573679 1175573680 1175573681 1175573682 1175573683 -79091966 1175567509 1175567508 1175567507 1175567518 1175567517 1175565895 1175565894 1175565893 1175567461 1175567460 1175567459 1175567458 1175567457 79091718"/>
    </vehicle>
    <vehicle id="tru19" type="tru_truck" depart="19.00" departLane="best">
        <route edges="1175575203 1175563987 1175563986 -823928974 1175570338 1175570339 1175565090 1175565089 1175565094 1175565093 1175565092 1175565091 1175567693 1175567692 1175567690 1175568195 1175568194 1175568193 1175568192 1175568191 1175568202 1175568201 1175568200 1175568199 1175568198 1175568197 1175568196 1175568190 1175568189 -824633819 1175568159 1175568158 1175568157 1175564503"/>
    </vehicle>
    <vehicle id="tru20" type="tru_truck" depart="20.00" departLane="best">
        <route edges="1175567413 1175567196 1175567195 1175567194 1175567189 1175567178 1175567177 1175574020 1175574021 1175574022 1175574023 1175571802 1175571803 1175571804 1175571805 1175565143 1175565142 1175565141 1175565140 1175565152 1175565151 1175565150 1175565149 1175565148 1175565147 1175565146 1175565145 1175565139 1175565138 429965959 429965960 1175570400 1175570401 1175570394 1175570323 1175570324 1175570329 1175570699 1175570700 1175570701 1175570702 1175570216 1175570217 1175570212 1175569365 1175569366 1175569936 1175569937 1175569938 1175569939 1175569940 1175569941 1175571129 1175571130 1175571123 1175571124 1175570131 1175570132 1175570133 1175570134 1175570135 1175571087 1175571088 1175571089 1175571090 1175571091 1175574552 1175574553 1175574554 1175564351 1175564350 1175564349 1175564348 1175567577 1175567576 1175567575 1175567574 1175567573 1175566388 1175566387 1175566386 1175566385 1175566384 1175566383 1175566382 1175566381 1175563213 1175563212 1175563227 1175563226 1175563225 1175563224 1175563223 1175563211 1175567876 1175567874 1175567873 1175567872 1175567871 1175567870 1175567869 1175567868 1175567867 1175567882 1175567881 1175567880 1175567879 1175567878 1175567877 -572106487 1175572622 1175572623 1175563393 1175563392 1175563391 1175563390 1175565530 1175565529 1175568028 1175568027 1175568026 1175568025"/>
    </vehicle>
    <vehicle id="tru21" type="tru_truck" depart="21.00" departLane="best">
        <route edges="1175568143 1175568142 1175572410 1175570878 1175570879 1175570880 1175570881 1175570882 1175570883 1175570884 1175570870 1175570871 1175570872 1175570873 1175570874 1175570875 1175572285 1175572286 1175572287 1175572288 1175564049 1175564048 1175564047 1175564046 1175576921 1175572478 1175572479 1175572484 1175572485 1175572486 1175572487 1175572488 1175572489 1175572490 1175572480 1175572481 1175572482 1175572483 1175576481 1175572491 1175572492 1175572493 1175572494 1175572495 1175572496 1175572497 1175570952 1175570943 1175570944 1175570942 1175570945 1175570946 1175571096 1175571097 1175571098 1175571099 1175571100 1175571101 1175571102 1175571103 90972296 1175576551 1175576557 1175576558 1175576559 1175576560 1175576561 1175576562 1175576563 1175576564 1175576552 1175576553 1175576554 1175576555 1175576556 1006064981 1175569348 1175569349 1175569350 1164047166 1175576925 1175576926 1175576927 1175576928 1175571076 1175571077 1175571079 1175571080 1175571081 1175571082 1175571083 1175571084 1175571085 1175571086 1175571078 1175576929 1175576930 1175569223 1175569224 1175569225 1175569226 1175567993 1175567992"/>
    </vehicle>
    <vehicle id="tru22" type="tru_truck" depart="22.00" departLane="best">
        <route edges="1175569733 1175566746 1175566745 1175574811 1175563423 1175566842 1175566841 1175566840 1175566839 1175566838 1175571717 -821884074 -915729855 1175570120 1175570121 1175570122 1175570123 1175570124 1175570125 1175570126 1175570113 1175570114 1175570115 1175570116 1175570117 1175570118 1175570119 1175572105 1175572109 1175572110 1175572111 1175572112 1175572113 1175572114 1175572115 -1001615015 1175571536 1175568071 1175568069 1175568068 1175568067 1175568066 1175568065 1175568064 1175568063 1175568062 1175568061 1175568060 1175576044 1175576045 1175576046"/>
    </vehicle>
    <vehicle id="tru23" type="tru_truck" depart="23.00" departLane="best">
        <route edges="1175576109 1175576722 1175576723 1175564216 1175564215 1175564214 1175564213 1175564212 1175564210 1175564209 1175568424 1175568423 1175568422 1175568421 1164047168 1164047167 1164047165 1006064980 1175570136 1175570137 1175570138 1175570139 1175570140 1175570141 1175570142 1175570143 142724426 90972275 1175576587 1175576588 1175576589 1175576590 1175570948 1175570949 1175570950 1175572498 1175572499 1175572500 1175572501 1175572502 1175572430 1175572431 1175572432 1175572433 1175572434 1175573755 1175573756 1175573757 1175570433 1175570434 1175573213 1175573214 1175573215 1175573216 1175570582 1175570583 1175570584 1175570585 1175570586 1175576735 1175576736 1175576738 1175576739 1175576740 1175570633 1175570634 1175570635 1175570791 1175570792 1175570793 1175570794 1175570795 48268655"/>
    </vehicle>
    <vehicle id="tru24" type="tru_truck" depart="24.00" departLane="best">
        <route edges="1175562915 1175567209 1175565074 571835452 1175568195 1175568194 1175568193 1175568192 1175568191 1175568202 1175568201 1175568200 1175568199 1175568198 1175568197 1175568196 1175572110 1175572111 1175572112 1175572113 1175572114 1175572115 1175572116 1175572106 1175572107 1175572108 1175570127 1175570128 1175571512 572161992 1175567548 1175567547 1175567551 1175567543 1175567542 1175567541 -821944351 1175566181 1175566180 -821944350 1175567298 1175565995 1175565994 1175565993 1175565992"/>
    </vehicle>
    <vehicle id="tru25" type="tru_truck" depart="25.00" departLane="best">
        <route edges="1175564658 821882274 1175563919 1175563918 915729855 571373698 1175564678 1175564677 1175574661 1175574662 1175574663 1175574664 1175574665 1175574666 821913471 247478969 1175569722 1175569723 1175569724 1175569804 1175569805 1175569806 1175566753 1175566752 1175566422 1175566421 1175566420 1175566419 1175571041 1175571052 1175571063 1175571064 1175571065 1175571066 1175571067 1175571068 1175571042 1175571043 1175571044 1175571045 1175571046 1175574530 1175574531 1175574532 1175574892 1175574893 1175574894 1175574895 1175574896 1175574897 1175574898 1175574899 1175574900 1175574901 90972279 1175576565 1175576566 1175576567 1175570141 1175571087 1175571088 1175571089 1175571090 1175571091 1175571338 1175563738 1175574292 1175574293 1175574294 1175566736 1175566735 1175566734 1175566733 1175566732 1175566731 1175566730 1175563339 1175564332 1175564336 1175564335"/>
    </vehicle>
    <vehicle id="tru26" type="tru_truck" depart="26.00" departLane="best">