<?xml version="1.0" encoding="UTF-8"?>

<!-- generated on 2023-07-01 23:21:19.869360 by randomTrips.py v1_18_0+0023-ef591d47046
<configuration>
    <duarouter-routing-threads value="4"/>
    <end value="1000.0"/>
    <fringe-start-attributes value="departSpeed=&quot;max&quot;"/>
    <max-distance value="6000.0"/>
    <net-file value="pasto.net.xml.gz"/>
    <period value="1.0"/>
    <random value="True"/>
    <remove-loops value="True"/>
    <route-file value="pasto.bicycle.rou.xml"/>
    <trip-attributes value="departLane=&quot;best&quot;"/>
    <output-trip-file value="pasto.bicycle.trips.xml"/>
    <prefix value="bik"/>
    <validate value="True"/>
    <vclass value="bicycle"/>
    <vehicle-class value="bicycle"/>
    <via-edge-types value="highway.motorway,highway.motorway_link,highway.trunk_link,highway.primary_link,highway.secondary_link,highway.tertiary_link"/>
</configuration>
-->

<!-- generated on 2023-07-01 23:21:11 by Eclipse SUMO duarouter Version v1_18_0+0023-ef591d47046
<configuration xmlns:xsi="http://www.w3.org/2001/XMLSchema-instance" xsi:noNamespaceSchemaLocation="http://sumo.dlr.de/xsd/duarouterConfiguration.xsd">

    <input>
        <net-file value="pasto.net.xml.gz"/>
        <route-files value="pasto.bicycle.trips.xml"/>
    </input>

    <output>
        <output-file value="pasto.bicycle.rou.xml"/>
        <alternatives-output value="NUL"/>
    </output>

    <processing>
        <remove-loops value="true"/>
        <routing-threads value="4"/>
    </processing>

    <time>
        <begin value="0.0"/>
        <end value="1000.0"/>
    </time>

    <report>
        <no-warnings value="true"/>
        <ignore-errors value="true"/>
        <no-step-log value="true"/>
    </report>

</configuration>
-->

<routes xmlns:xsi="http://www.w3.org/2001/XMLSchema-instance" xsi:noNamespaceSchemaLocation="http://sumo.dlr.de/xsd/routes_file.xsd">
    <vType id="bik_bicycle" vClass="bicycle"/>
    <vehicle id="bik0" type="bik_bicycle" depart="0.00" departLane="best">
        <route edges="1175567085 1175568854 1175568855 1175568856 1175568857 1175568848 1175568849 1175568850 1175569812 1175569813 1175569814 1175569815 247535959 247535958 1175571052 1175571063 1175571064 1175575520 1175575521 1175575522 1005228023 1175568637 1175576615 1175576616 1175576617 1175576618 1175574994 1175569371 1175573200 1175574870 1175575002 1175575003 1175575004 -438345819 1175577177 1175577178 1175577185 1175577186 1175577187 1175575379 1175575380 1175570057 1175576503 1175576504 894323143 1175572063 1175572064 1175572065 1175570375 1175570376 1175570377 1175570378 1175570379 1175570380 -434937419 1175576803 1175576804 1175576805 1175576806 1175570101 1175570102 1175570104 1175570105 1175573603 1175573604 1175573605 1175573748 1175575489 1175575490 1175575492"/>
    </vehicle>
    <vehicle id="bik1" type="bik_bicycle" depart="1.00" departLane="best">
        <route edges="1175565479 1175565478 1175563259 1175563258 1175563257 1175563884 1175563883 1175563882 1175569916 1175569917 1175569918 1175575890 1175563247 1175563246 1175563245 1175563244 1175563243 1175563255 1175563254 1175563253 1175563252 1175563251 1175563250 1175563249 1175563248 1175563242 1175563241 1175565549 1175565548 1175565547 1175565546 1175565545 1175565544 1175565543 1175565542 1175568461 1175568460 1175568459"/>
    </vehicle>
    <vehicle id="bik2" type="bik_bicycle" depart="2.00" departLane="best">
        <route edges="1175567366 1175567365 1175575043 1175575044 -540970679 1175564354 1175571338 1175568759 1175568760 1175572353 1175572354 1175572355 788923635 1175575101 247536022 247536027 1175569877 1175569878 1175569879 1175569880 1175566757 1175566756 1175574379 1175574380 1175566141 1175566140 1175566139 1175570964 1175570965 1175569465 1175573231 1175573232 1175573753 1175573754 1175573755 1175573756 1175573757 1175570433 1175570434 1175570435 1175570436 1175572473 1175572474 1175572475 1175572476 1175572477 1175572462 1175572463 1175572464 1175572465 1175572466 1175572467 1175572468 1175572469 1175570546 1175570547 1175570548 1175570549 1175572284 1175570683 1175570684 1175570875 1175570876 1175576260 1175576261 1175576271 1175576275 1175576276 1175576277 1175576278 1175576279 1175576280 1175576281 1175576262 1175576263 1175576264 1175576265 1175576266 1175570888 1175570889 88740886 1007998747"/>
    </vehicle>
    <vehicle id="bik3" type="bik_bicycle" depart="3.00" departLane="best">
        <route edges="1175573183 91859814 1175573739 1175573740 1175573741 1175573742 1175573743 1175573744 1175573745 1175570583 1175570584 1175570585 1175570586 1175576735 1175576736 1175576738 1175576739 1175576740 1175576741 1175576742 1175576743 1175576744 1175576745 1175576737 48483043 48870937 48870938 1175571012 1175571013 1175571016 1175571017 1175571018 1175571019 1175571020 1175571021 1175571022 1175571014 1175571015 1175576238 1175576239 1175576240 1175565137 1175565136 1175565135 1175565134 1175565133 1175568557 -571284431 1175564442"/>
    </vehicle>
    <vehicle id="bik4" type="bik_bicycle" depart="4.00" departLane="best">
        <route edges="1175565771 1175573832 1175575561 1175575562 1175575563 1175575564 1175575565 1175575566 1175573182 1175573183 91859814 1175573739 1175573740 1175573741 1175573742 1175573743 1175573744 1175573745 1175573203 1175573204 1175573205 1175573206 1175573207 788613102 1175570953 1175572592 429009169 1175572339 1175572449 1175572450 1175572451 1175572452 1175572453 1175572454 1175572455 1175569912 1175569913 1175569919 1175569920 1175569921 1175562821 1175562820 1175568520"/>
    </vehicle>
    <vehicle id="bik5" type="bik_bicycle" depart="5.00" departLane="best">
        <route edges="1175570859 1175570862 1175570863 1175570864 1175573741 1175573742 1175573743 1175573744 1175573745 1175573203 1175573204 1175573205 1175573206 1175573207 1175572314 1175572315 1175572316 1175572317 1175572318 1175572319 1175573796 1175573797 1175572563 1175572265 1175572266 1175572267 1175572268 96379264 1175570257 1175570258 1175570259 1175570260 1175570261 1175570509 1175570510 1175570511 1175570504 1175570505 1175572998 1175568396 78335888 1175565689 1175565643 1146828866"/>
    </vehicle>
    <vehicle id="bik6" type="bik_bicycle" depart="6.00" departLane="best">
        <route edges="1175564932 1175575917 1175573876 1175573834 1175573835 1175573836 1175572171 1175572172 1175572173 1175572174 1175572175 1175572176 1175572167 1175572168 1175572169 1175572170 1175566046 -626983748 1175565970 1175566171 1175566170 1175566169 1175566168 1175570107 1175570108 1175568380 1175573883 1175573884 1175573885 1175573886 1175576810 1175576782 1175576783 1175576784 96314896 822358804 1175575291 1175575292 1175575293 1175575294 1175575295 1175575296 1175570586 1175576735 1175576736 1175576738 1175576739 1175576740 1175576741 1175576742 1175576743 1175576744 1175576745 1175576737 48483043 48870937 48870938 1175571012 1175571013 1175571016 1175571017 1175571018 1175571019 1175571020 1175571021 1175571022 1175571014 1175571015 1175576238 1175576239 1175576240 1175565137 1175565136 1175565135 1175565134 1175565133 1175568468 1175568467 -98356942 1175565226 1175565225"/>
    </vehicle>
    <vehicle id="bik7" type="bik_bicycle" depart="7.00" departLane="best">
        <route edges="1175572543 1175570670 1175572373 1175572374 1175572375 1175568686 1175568687 1175570646 1175570647 1175570818 1175570819 1175570820 1175569030 1175569031 1175569025 1175569026 1175569027 1175569028 1175569029 1175576796 1175576797 1175570278 1175570279 1175570280 1175570281 1175570282 1175567529 1175567528 1175567527 1175567526 1175567525 1175567524 1175567523 1175567522 1175563931 1175563930 1175575586 1175575587 1175567543 1175573629 1175573630"/>
    </vehicle>
    <vehicle id="bik8" type="bik_bicycle" depart="8.00" departLane="best">
        <route edges="1175568310 1175568309 -1083196560 1175576564 1175576552 1175576553 1175576554 1175576555 1175576556 1006064981 1175569348 1175569349 1175569350 1175569351 1164047167 1164047165 1006064980 1175570136 1175570137 1175570138 1175570139 1175570140 1175570141 1175570142 1175570143 142724426 90972275 1175576587 1175576588 1175576589 1175576590 1175570948 1175570232 1175570233 1175570234 1074501790 96321153 1074501788 1175576607 1175573571 1175573572 1175573573 1175573574 1175573415 1175573416"/>
    </vehicle>
    <vehicle id="bik9" type="bik_bicycle" depart="9.00" departLane="best">
        <route edges="1175573111 1175565224 95413422 1175576233 1175576234 1175568100 1175568099 1175568098 1175568097 1175570562 1175570563 1175570564 1175570565 1175570566 1175570567 1175570726 47997595 1175576238 1175576239 821883642 1175570569 1175570574 1175570575 1175570576 1175570577 1175570578 1175570579 1175570580 1175570581 1175570570 1175570571 1175570572 1175570573 48483045 48870924 48870923 1175576721 1175576712 1175570640 1175570641 1175570650 1175570651 1175570652 1175570653 1175570654 1175570655 1175570656 1175570657 1175570642 1175570643 1175570644 1175570645 1175570646 1175570647 1175570648 1175570649 1175572273 1175572274 1175572275 1175572276 1175572277 1175572278 1175570391 1175572481 1175572482 1175572483 893393728 1175576498 893394229 1175576479 1175576480 1175572069 1175570349 1175570350 1175576505 1175576506 1175575381 627041177 1175577183 1175577184 1175577185 1175570050 1175570051 1175570052 1175570053 1175570054 1175570055 1175570056 1175577162 1175577163 1175577164 1175577165 1175570196 1175570197 1175570198 1175570199 1175570200 1175570201 821524259 1175573342 1175573343 1175573344 1175573345 1175569971 1175566129 1175573534 1175573535"/>
    </vehicle>
    <vehicle id="bik10" type="bik_bicycle" depart="10.00" departLane="best">
        <route edges="1175569899 1175569900 247536053 1175563799 1175563798 1175563797 1175574304 1175574305 1175574306 1175574307 1175574308 1175574309 247536039 1175569884 1175569885 1175569886 1175569887 1175569888 1175569889 1175568749 1175568750 1175568757 1175568758 1175563219 1175563218 1175563217 1175563216 1175563215 1175563214 1175563213 1175563212 1175563227 1175563226 1175563225 1175563224 1175563223 1175563211 1175567876 1175567874 1175567873 1175567872 1175567871 1175567870 1175567869 1175567868 1175567867 1175572630 1175572631 1175572616 1175572617 1175567977"/>
    </vehicle>
    <vehicle id="bik11" type="bik_bicycle" depart="11.00" departLane="best">
        <route edges="1175574397 1175574462 1175574463 1175574464 1175574465 1175574466 1175574467 1175569430 1175569431 1175569441 1175569449 1175569453 1175569454 1175569455 1175569456 1175569457 1175569432 1175569433 1175569434 1175569435 1175574087 1175574088 1175574699 1175574700 1175574701 1175563510 1175566063 1175566062 1175566061 1175566060 1175566574 1175563588 1175563587 1175563596 1175563595 1175563594 1175563593 1175563592 1175563591 1175563590 1175563589 1175563586 1175563585 751950397 1175563526 1175563525 79092031 821504319 1175576380 1175576381 633053586 1175575360 1175575361 1175576347 1175576348 1175576349 1175576350 1175576351 1175576352 1175575961 1175568571 1175568068 1175568067 1175568066 1175568065 1175568064 1175568063 1175568062 1175568061 1175568060 1175576044 1175576045 1175576046 1175571562 571375367 873061633 824673409 824673408 1175564489"/>
    </vehicle>
    <vehicle id="bik12" type="bik_bicycle" depart="12.00" departLane="best">
        <route edges="1175573414 1175568573 1175572158 -821972263 1175567621 1175567620 1175572176 1175565962 1175565961 1175565960 1175565959 1175565958 1175567602 1175567601 1175567600 1175567599 1175567595 -626962595 1175573458 1175573459 1175575537 1175575538 1175575539 1175575540 79092020 1175567522 1175564004 1175565891 1175565890 1175565889 1175565888 1175573582 1175573583 1175573584 1175567306 1175563835 1175563834 1175563833 1175563832 1175563831 1175563830 1175563838 1175563837 1175563836 1175571023 1175571024 1175571026 1175571027 1175571028 1175571029 1175571030 1175571031 1175571025 1175572872 1175572873 1175572874 1175572875 88747219 1175576339 99555816 1175570198 -79536710 1175563533 1175563532 1175563531 1175563514 1175563513 1175563588 1175563587 79536649 -247462340 1175567099 1175569442 1175569443 1175569444 1175569445 1175569636 1175569637 1175569638 1175569639 1175569640 -247462359 1175566832 1175566831 1175566830 1175566829 1175569649 1175574590 1175574591"/>
    </vehicle>
    <vehicle id="bik13" type="bik_bicycle" depart="13.00" departLane="best" departSpeed="max">
        <route edges="-572015190 -821900637 1175573885 1175573886 1175576810 1175576782 1175576783 1175576784 96314896 822358804 1175575291 1175575292 1175575293 1175575294 1175575295 1175575296 1175568683 1175568684 1175568685 1175573499 1175573500 1175573501 1175573502 1175573503 1175573504 1175576841 1175576842 1175576843 1175576844 1175572336 1175572337 1175572338 1175572339 1175572449 1175572450 1175572451 1175572452 1175572453 1175572454 1175572455 1175569912 1175569913 1175569919 1175569920 1175574304 1175574305 1175574306 1175574307 1175574308 1175574309 247536039 1175569884 1175569885 1175569886 1175569887 1175569888 1175569889 1175568749 1175568750 1175568757 1175568758 1175563219 1175563218 1175563217 1175563216 1175563215 1175563214 1175563213 1175565414 1175565413 1175565412 1175565411 1175565410 1175567861 1175567860 1175567859 1175567858 1175567857 1175564383 1175564382"/>
    </vehicle>
    <vehicle id="bik14" type="bik_bicycle" depart="14.00" departLane="best">
        <route edges="1175563384 1175563383 1175575540 79092020 1175567522 1175564004 1175565891 1175565890 1175565889 1175565888 1175573582 1175573583 1175573584 1175567306 1175563835 1175563834 1175563833 1175563832 1175563831 1175563830 1175563838 1175563837 1175563836 1175571023 1175571024 1175571026 1175571027 1175571028 1175571029 1175571030 1175569976 1175573420 1175566167 -891054332"/>
    </vehicle>
    <vehicle id="bik15" type="bik_bicycle" depart="15.00" departLane="best">
        <route edges="1175570866 1175570867 1175575293 1175575294 1175572465 1175572466 1175572467 1175572468 1175572469 1175570546 1175570547 1175570548 1175570549 1175572284 1175576499 1175576500 893436347 1175570769 1175570770 1175570772 1175570773 1175570774 1175570775 1175570776 1175570777 1175570778 1175570779 1175570771 1175571384 1175571385 1175571388 1175571389 1175571390 1175571391 1175571392 1175571393 1175571394 1175571395 1175571386 1175571387 1175570749 1175570750 1175570751 1175570752 1175570753 1175570754 1175570755 1175570756 1175570757 1175570758 1175567990 1175567989 1175567988 1175567987 1175563951 1175563950 1175563948 1175563947 1175563946 1175563945 1175563944 1175563943 1175563942 1175563941 1175563940 1175563958 1175563957 1175563956 1175563955 1175563954 1175563953 1175563952 1175571737 1175571738 1175564694"/>
    </vehicle>
    <vehicle id="bik16" type="bik_bicycle" depart="16.00" departLane="best">
        <route edges="219798598 1175564112 1175564111 1175564110 1175564109 1175570726 47997595 1175576238 1175576239 821883642 1175570569 1175570574 1175570575 1175570576 1175570577 1175570578 1175570579 1175570580 1175570581 1175570570 1175570571 1175570572 1175570573 48483045 1175571398 1175571399 1175571400 1175571401 1175570504 1175570505 1175570506 1175570541 1175570542 1175570543 1175570544 1175570545 1175569913 1175569919 1175569920 1175574304 1175574305 1175574306 1175574307 1175574308 1175574309 247536039 1175569884 1175569885 1175569886 1175569887 1175569888 1175569889 1175568749 1175568750 1175564328 1175564327 1175571316 1175571317"/>
    </vehicle>
    <vehicle id="bik17" type="bik_bicycle" depart="17.00" departLane="best">
        <route edges="1175565609 1175565608 1175565607 1175565617 1175565616 1175565615 1175565614 1175565613 1175565612 1175565606 1175565605 1175565533 1175565532 1175565531 1175571160 1175562867 1175562866 1175562865 1175570505 1175570506 1175570507 1175570508 1175570509 1175576710 1175576711 1175572564 1175572565 1175572566 1175571235 1175571236 1175571237 1175576846 1175576847 1175576848 1175576849 1175576850 1175576851 1175576852 1175576840 1175572568 1175572569 1175572576 1175572577 1175572578 1175572579 1175572580 1175572581 1175572582 1175572583 1175572570 1175572571 1175572572 1175572573 1175572574 1175577056 1175577057 1175569028 1175569029 1175576796 1175576797 1175570278 1175570279 1175570280 1175570281 1175570282 1175567529 1175567528 1175567527 1175567526 1175567525 1175567524 1175567523 1175567522 1175563931 1175563930 1175575586 1175575587 1175567543 1175567542 1175565925 1175565924 1175566180 -821944350 1175567298 1175565995 1175565994"/>
    </vehicle>
    <vehicle id="bik18" type="bik_bicycle" depart="18.00" departLane="best">
        <route edges="1175568821 1175568822 1175568823 1175568812 1175568813 1175568814 1175568815 1175575227 1175575228 1175568863 1175568864 1175568865 1175568866 1175568867 1175568868 1175569812 1175569813 1175569814 1175569815 247535959 247535958 1175564175 1175564174 1175576662 1175576673 1175576674 1175576675 1175576667 1175576668 1175576669 1175576670 429965959 429965960 1175570400 429965963 1175574460 1175574461 1175574462 1175574463 1175574464 1175574465 1175574466 1175574467 1175569430 1175569431 1175569441 1175569449 1175569453 1175569454 1175569455 1175569456 1175569457 1175569432 1175569433 1175569434 1175569435 1175574087 1175574088 1175574699 1175574700 1175574701 1175563510 1175566063 1175566062 1175566061 1175566060 1175566574 1175563588 1175563587 1175563596 1175563595 1175563594 1175563593 1175563592 1175563591 1175563590 1175563589 1175563586 1175563585 1175565736 1175567362 1175567361 1175565794 1175565793 1175565792 1175565791 -821504312 -821504313 1175563937 1175563936 1175567405 1175567404 1175567403 1175567402 1175567401 1175567400 1175567399 1175567398 1175567397 1175567396 1175570084 1175570085 1175570086 391058616 1175572243 1175572244 391058614"/>
    </vehicle>
    <vehicle id="bik19" type="bik_bicycle" depart="19.00" departLane="best">
        <route edges="1175565361 247557158 1175572980 824600071 1175565407 1175565406 -824632639 1175565503 1175565502 1175565501 1175565500 1175565499 1175565498 1175563794 1175563793 1175563792 1175570047 1175570048 1175570049 1175569167 1175569168 530397311 1175563776 1175563775 1175563774 1175566758 1175566757 1175566756 1175574379 1175574380 1175573733 1175574204 821560549 91908512 1175574826 1175574827 1175570956 1175570957 1175570958 1175570959 1175570944 1175570942 1175570945 1175570946 1175570947 1175570948 1175570232 1175570233 1175570234 1074501790 1175564162 1175564161 1175564160 1175564159 1175564158 1175564157 1175572184 1175577169 1175577170 1175568570 1175568569 1175572130 1175572131 1175577043 1175577044 1175577163 788626933 1175564043 1175564042 1175563534 1175563533 1175563532 1175563531 1175563530 1175563529 1175563528 1175563527 1175563526 1175563525 79092031 821504319 1175576380 1175576381 1175575882 1175575883 1175575193 -915505849"/>
    </vehicle>
    <vehicle id="bik21" type="bik_bicycle" depart="21.00" departLane="best">
        <route edges="1175564635 -571386543 -571386502 1175564629 1175564628 -821882274 1175571699 1175571700 1175567190 1175567188 1175567187 1175567186 1175567185 1175567184 1175567183 1175567182 1175567181 1175567180 1175567179 1175567199 1175567198 1175567197 1175575446 1175575447 1175575448 821885328 1175575424 1175575425 1175575426 1175575007 1175575008 1175575009 1175575236 1175575237 1175569480 1175569481 1175569494 1175569495 1175569496 1175569497 1175569482 1175569483 1175569484 1175569485 1175569486 1175569487 1175569488 1175569489 1175569490 1175569491 1175569492 1175574041 1175574676 1175574467 -167671622 1175575063 1175575064 1175575065 1175575066 1175567027 1175567026 1175577180 1175577181 1175570499 1175565049 1175571000 1175571001 1175571002 1175571003"/>
    </vehicle>
    <vehicle id="bik22" type="bik_bicycle" depart="22.00" departLane="best">
        <route edges="1175569695 1175569696 -803769961 1175566771 1175565151 1175565150 1175565149 1175565148 1175565147 1175565146 1175565145 1175565139 1175565138 429965959 429965960 1175570400 1175570401 1175570394 1175570323 1175570324 1175570329 1175570699 1175570700 1175570701 1175570702 1175573200 1175573201 1175573202 1175569948 1175569949 1175569950 1175569951 1175569952 1175569953 1175569944 1175569945 1175569946 1175576575 1175576576 1175576577 1175570439 1175570440 1175570441 1175570442 1175570443 1175570444 1175570445 1175570446 1175570447 1175570437 1175570438 1175570251 1175570252 1175572547 1175572548 1175572553 1175572554 1175572555 1175572556 1008840985"/>
    </vehicle>
    <vehicle id="bik23" type="bik_bicycle" depart="23.00" departLane="best" departSpeed="max">
        <route edges="1175564933 1175572048 1175572049 1175572050 1175572051 1175572052 1175572053 1175564904 1175572174 1175572175 1175572176 1175565962 1175565961 1175565960 1175565959 1175565958 1175567602 1175567601 1175567600 1175567599 1175567595 -626962595 1175573458 1175573459 1175575537 1175573322 1175573323 1175573324 1175573325 1175573904 1175573905 -79091661 1175573182 821217311 1175570279 376279914 1175563972 1175563971 1175563970 1175563969 1175563968 1175563967 1175565875"/>
    </vehicle>
    <vehicle id="bik24" type="bik_bicycle" depart="24.00" departLane="best">
        <route edges="1175565592 1175572934 1175565538 1175565537 1175565536 1175565535 1175565534 1175565533 1175565532 1175565531 1175571160 1175562867 1175562866 1175562865 1175570505 1175570506 1175570541 1175570542 1175570543 1175570544 1175570545 435398045 1175572411 1175572412 1175572413 821611279 1175576591 1175576592 1175569382 1175569383 1175569384 1175571124 1175571125 1175571126 1175571127 1175571143 1175571144 1175576623 1175576624 1175576625 1175576626 1175576627 1175576628 1175576629 1175576630 1175576631 1175575223 1175575224 1175575225 1175575226 1175575227 1175575228 894446023 1175568858"/>
    </vehicle>
    <vehicle id="bik25" type="bik_bicycle" depart="25.00" departLane="best">
        <route edges="1175573116 1175573117 1175568103 1175565729 1175568097 1175568108 1175568107 1175576062 1175576063 1175571386 1175571387 1175570749 1175570750 1175570751 1175570752 1175570753 1175570754 1175570755 1175570756 1175570757 1175570758 1175567990 1175567989 1175567988 1175567987 1175563951 1175563950 1175563948 1175563947 1175563946 1175563945 1175563944 1175563943 1175563942 1175563941 -571340295"/>
    </vehicle>
    <vehicle id="bik26" type="bik_bicycle" depart="26.00" departLane="best">
        <route edges="1175562821 1175562820 1175577091 1175571116 1175571117 1175571118 1175571119 1175571120 1175571121 1175571122 1175571115 1175571249 1175571250 1175571251 1175571252 1175570252 1175570253 1175570254 1175570508 1175570509 1175570510 1175570511 1175570504 1175568707 1175568708 1175568709 1175564237 1175572877 1175572878 1175572879 1175572880 1175572881 1175572882 1175572883 1175568751 1175568752 1175568753 1175568754 1175568755 1175568756 1175575824 1175575779"/>
    </vehicle>
    <vehicle id="bik27" type="bik_bicycle" depart="27.00" departLane="best">
        <route edges="1175575103 1175575104 1175575105 1175575106 1175575107 1175575108 1175575109 1175575073 1175575074 1175575075 1175575076 1175570221 1175570222 1175569492 1175574041 1175574676 1175574467 -167671622 1175575063 1175575064 1175575065 1175575066 1175567027 1175567026 1175577180 1175577181 1175569376 1175569368 1175569369 1175570208 1175570209 1175570210 1175577187 1175575379 1175575380 1175570057 1175576503 1175576504 894323143 1175572063 1175572064 1175572065 1175570375 1175570376 1175570377 1175570378 1175570379 1175570380 -434937419 1175576803 1175576804 1175576805 1175576806 1175570101 1175570102 -821900636 1175566254 1175566253 1175566252 1175576798 1175570109 1175570110 1175570111 1175570103 1175568572 1175568573 1175568574 1175568575 1175568576 1175566015 1175566014 1175567800"/>
    </vehicle>
    <vehicle id="bik28" type="bik_bicycle" depart="28.00" departLane="best">
        <route edges="1175568514 1175568513 1175577076 96319744 -79536774 1175563786 1175563785 1175566714 1175566713 1175575261 80175355 1175570471 1175566757 1175572411 1175572412 1175572413 821611279 1175576591 1175576592 1175569382 1175569383 1175569384 1175571124 1175571125 1175571131 1175571132 1175566363 1175566362 1175564207 1175564206 1175564205 1175564204 1175564203"/>
    </vehicle>
    <vehicle id="bik29" type="bik_bicycle" depart="29.00" departLane="best">
        <route edges="1175570189 1175570190 1175570486 1175570487 1175570488 1175574977 1175571035 1175571036 1175571037 1175571038 1175571039 1175569954 1175569955 1175569956 1175569957 1175569926 1175569927 1175569928 1175569929 1175569930 1175569931 1175569932 1175569933 1175569934 1175569935 247535990 1175564176 561134173 1175574319 1175574320 1175574321 1175574322 1175574323 1175574324 1175574325 1175566395 695866300"/>
    </vehicle>
    <vehicle id="bik30" type="bik_bicycle" depart="30.00" departLane="best">
        <route edges="1175565976 824620501 1175573860 824620505 1175575596 1175567749 1175567748 1175567747 1175567754 1175567753 1175567752 1175567751 1175566119 1175566118 1175566117 1175566116 1175566115 1175566114 1175566113 1175564941 1175564940 1175564939 1175566189 1175565959 1175565958 1175567507 1175567518 1175567517 1175567516 1175567515 1175567514 1175567513 1175567506 1175575506 1005178529 1175566041 1175570106 1175570107 1175570108 1175568380 1175573883 1175573884 1175573885 1175573886 1175576810 1175576782 1175576783 1175576784 96314896 822358804 1175575291 1175575292 1175575293 1175575294 1175575295 1175575296 1175570586 1175576735 1175576736 1175576738 1175576739 1175576740 1175576741 1175576742 1175576290 1175576291 1175570660 1175570661 1175570662 -405396383 1175570651"/>
    </vehicle>
    <vehicle id="bik31" type="bik_bicycle" depart="31.00" departLane="best">
        <route edges="1175565604 1175565603 1175572921 1175572922 1175570532 1175570533 1175563789 1175563788 1175570251 1175570252 1175570253 1175570254 1175570508 1175570509 1175576710 1175576711 1175576714 1175576715 1175572343 1175570513 1175570514 1175570515 90972294 392852643 268532983 1175571384 1175571385 1175570759 1175570760 1175570762 1175564126"/>
    </vehicle>
    <vehicle id="bik32" type="bik_bicycle" depart="32.00" departLane="best" departSpeed="max">
        <route edges="88371824 78518754 360214314 88371821 1175568728 1175576243 1175576244 1175570564 1175570565 1175570566 1175570567 1175570726 1175570727 1175570735 1175570736 1175572357 1175572358 1175564097 1175564096 1175564095 1175564094 1175570427 1175570428 1175570411 1175570412 1175570413 1175570414 1175570415 1175570416 1175570417 1175570418 1175570419 1175570420 893436350 1175576501 1175576502 1175564049 1175564048 1175564047 1175576774 1175576775 1175576776 1175576777 1175572293 1175572294 1175572295 1175572296 91859871 91859826 1175576784 96314896 1175577055 1175577056 1175577057 1175569028 1175569029 1175576796 1175576797 1175570278 1175570279 1175570280 1175570281 1175570282 1175567529 1175567528 1175567527 1175567526 1175567525 1175567524 1175567523 1175567522 1175564004 1175565891 1175565890 1175565889 1175565888 1175573582 1175573583 1175573584 1175567306 1175563835 1175563834 1175563833 1175563832 1175563831 1175563830 1175563838 1175563837 1175563836 1175571023 1175571024 1175571026 1175571027 1175571028 1175571029 1175571030 1018777733 247549484"/>
    </vehicle>
    <vehicle id="bik33" type="bik_bicycle" depart="33.00" departLane="best">
        <route edges="1175564526 1175564525 1175569138 1175569123 1175569124 1175569125 1175569126 1175569127 1175569128 1175569129 1175569130 1175569131 1175569132 1175569133 1175569263 1175569264 1175569857 1175569858 1175569859 1175569860 1175572353 1175572354 1175572355 1175572356 1175569871 1175569872 1175569873 1175569874 1175573217 1175573218 821611279 1175576591 1175576592 1175569382 1175569383 1175569384 1175571124 1175571125 1175571126 1175571127 1175571143 1175571144 1175571145 1175571146 1175571147 1175571148 1175571149 1175571150 1175571151 1175569367 1175569370 1175569371 1175569372 1175569373 1175569374 1175569375 1175568570 1175568569 1175572130 1175572131 1175577043 1175577044 1175577163 1175577164 1175577165 1175570196 1175570197 1175570198 1175570199 1175570200 1175570201 821524259 1175573342 1175573343 1175573344 1175565762 1175565761 1175565760 821236271"/>
    </vehicle>
    <vehicle id="bik34" type="bik_bicycle" depart="34.00" departLane="best">
        <route edges="1175573630 572161994 1175567551 1175567550 1175567549 1175570158 1175570159 1175564004 1175564003 1175564002 1175564001 1175564000 1175564011 1175564010 1175564009 1175564008 1175564007 1175564006 1175564005 1175563999 1175570381 1175572065 1175572066 1175572067 1175572068 1175572069 1175570349 1175570350 1175576504 1175570474 1175570472 1175570473"/>
    </vehicle>
    <vehicle id="bik35" type="bik_bicycle" depart="35.00" departLane="best" departSpeed="max">