<?xml version="1.0" encoding="UTF-8"?>

<!-- generated on 2023-07-01 23:22:19.814255 by randomTrips.py v1_18_0+0023-ef591d47046
<configuration>
    <duarouter-routing-threads value="4"/>
    <end value="1000.0"/>
    <fringe-start-attributes value="departSpeed=&quot;max&quot;"/>
    <max-distance value="8000.0"/>
    <min-distance value="2000.0"/>
    <net-file value="pasto.net.xml.gz"/>
    <period value="1.0"/>
    <random value="True"/>
    <remove-loops value="True"/>
    <route-file value="pasto.motorcycle.rou.xml"/>
    <trip-attributes value="departLane=&quot;best&quot;"/>
    <output-trip-file value="pasto.motorcycle.trips.xml"/>
    <prefix value="mot"/>
    <validate value="True"/>
    <vclass value="motorcycle"/>
    <vehicle-class value="motorcycle"/>
    <via-edge-types value="highway.motorway,highway.motorway_link,highway.trunk_link,highway.primary_link,highway.secondary_link,highway.tertiary_link"/>
</configuration>
-->

<!-- generated on 2023-07-01 23:22:09 by Eclipse SUMO duarouter Version v1_18_0+0023-ef591d47046
<configuration xmlns:xsi="http://www.w3.org/2001/XMLSchema-instance" xsi:noNamespaceSchemaLocation="http://sumo.dlr.de/xsd/duarouterConfiguration.xsd">

    <input>
        <net-file value="pasto.net.xml.gz"/>
        <route-files value="pasto.motorcycle.trips.xml"/>
    </input>

    <output>
        <output-file value="pasto.motorcycle.rou.xml"/>
        <alternatives-output value="NUL"/>
    </output>

    <processing>
        <remove-loops value="true"/>
        <routing-threads value="4"/>
    </processing>

    <time>
        <begin value="0.0"/>
        <end value="1000.0"/>
    </time>

    <report>
        <no-warnings value="true"/>
        <ignore-errors value="true"/>
        <no-step-log value="true"/>
    </report>

</configuration>
-->

<routes xmlns:xsi="http://www.w3.org/2001/XMLSchema-instance" xsi:noNamespaceSchemaLocation="http://sumo.dlr.de/xsd/routes_file.xsd">
    <vType id="mot_motorcycle" vClass="motorcycle"/>
    <vehicle id="mot0" type="mot_motorcycle" depart="0.00" departLane="best">
        <route edges="1175566618 1175566772 1175566771 1175565151 1175565150 1175565149 1175565148 1175565147 1175565146 1175565145 1175565139 1175565138 429965959 429965960 1175570400 1175570401 1175570394 1175570323 1175570324 1175570329 1175570699 1175570700 1175570701 1175570702 1175573200 1175573201 1175573202 1175569948 1175569949 1175569950 1175569951 1175569952 1175569953 1175569944 1175569945 1175569946 1175576575 1175576576 1175576577 1175570439 1175570440 1175570441 1175570442 1175570443 1175570444 1175570445 1175570446 1175570447 1175570437 1175570438 1175570251 1175570252 1175570253 1175570254 1175570508 1175570509 1175570510 1175570511 1175570504 1175570505 1175572998"/>
    </vehicle>
    <vehicle id="mot1" type="mot_motorcycle" depart="1.00" departLane="best">
        <route edges="1175565074 571835452 1175568195 1175568194 1175568193 1175568192 1175568191 1175568202 1175568201 1175568200 1175568199 1175568198 1175568197 1175568196 1175568190 1175568189 1175567787 1175567786 1175567785 1175567784 1175567783 1175567782 1175567781 1175568183 1175568182 1175568181 -79092031 1175569595 1175569596 1175569597 1175569598 1175569599 1175569600 1175569601 -782472048 821524259 1175573342 1175573343 1175573344 1175573345 1175569971"/>
    </vehicle>
    <vehicle id="mot2" type="mot_motorcycle" depart="2.00" departLane="best">
        <route edges="1175569869 1175569870 1175569863 1175569864 1175563782 1175563781 1175563780 1175563779 1175563778 1175563777 -247536039 1175566583 1175566582 1175566581 1175566580 1175566579 1175566578 1175563796 1175563795 1175563789 1175563788 1175570251 1175570252 1175570253 1175570254 1175570508 1175570509 1175570510 1175570512 1175570513 1175570514 1175570515 90972294 392852643 268532983 1175571384 1175571385 1175570759 1175570760 1175570762 1175570763 1175570764 1175570765 1175570766 1175570839 1175568484"/>
    </vehicle>
    <vehicle id="mot3" type="mot_motorcycle" depart="3.00" departLane="best" departSpeed="max">
        <route edges="1175567704 1175567703 1175567728 1175562906 1175562905 1175562904 1175562903 1175562902 1175562901 1175565537 1175565536 1175565535 1175565534 1175565533 1175565532 1175565531 1175571160 1175562867 1175562866 1175562865 1175570505 1175570506 1175570541 1175570542 1175570543 1175570544 1175570545 1175563788 1175565212 1175565211 1175565210 1175565209 1175565208 1175565207 1175565206 1175576822 1175576823 1175576824 1175570960 1175570961 1175570962 1175570963 1175570964 1175570965 1175569465 1175569466 1175569467 1175569468 1175576478 893393728 1175576498 893394229 1175576479 1175576480 1175572069 1175570349 1175570350 1175576505 1175576506 1175575381 627041177 1175577183 1175577184 1175577185 1175570050 1175570051 1175570052 1175570053 1175570054 1175570055 1175570056 1175577162 1175577163 788626933 1175564043 1175564042 1175563534 1175563533 1175563532 1175563531 1175563514 1175563513 1175563588 1175563587 1175563596 1175563595 1175563594 1175563593 1175563592 1175563591 1175563590 1175563589 1175563586 1175563585 1175565736 1175567362 1175567361 1175565794 1175565793 1175565792 1175565791 -821504312 -821504313 1175563937 1175563936 1175567405 1175567404 1175567403 1175567402 1175567401 1175567400 1175567399 1175567398 1175575185 1175575186 1175575187 1175575188"/>
    </vehicle>
    <vehicle id="mot4" type="mot_motorcycle" depart="4.00" departLane="best">
        <route edges="1175571158 1175571159 1175571160 1175562867 1175562866 1175562865 1175570505 1175570506 1175570541 1175570542 1175570543 1175570544 1175571252 1005800376 1175572270 1175572271 1175572272 1175573561 1175573562 1175573563 1175573564 1175573565 1175576843 1175576844 1175572334 1175572335 1175573208 1175573209 1175573210 1175573211 1175573212 1175572321 1175572322 1175572324 1175572325 1175572326 1175572327 1175572328 1175572329 1175572323 376279915 1175570281 1175570282 79091661 1175566275 1175575297 1175575298 1175575299"/>
    </vehicle>
    <vehicle id="mot5" type="mot_motorcycle" depart="5.00" departLane="best" departSpeed="max">
        <route edges="-824657985 1175564388 1175564387 1175567911 1175567910 824662368 1175572214 1175572215 1175572220 1175572221 1175572222 1175572223 1175572224 1175572225 1175572216 1175572217 1175572218 1175572219 1175567690 1175568195 1175568194 1175568193 1175568192 1175568191 1175568202 1175568201 1175568200 1175568199 1175568198 1175568197 1175568196 1175568190 1175568189 1175567787 1175567786 1175567785 1175567784 1175567783 1175567782 1175567781 1175568183 1175568182 1175568181 -79092031 1175569595 1175569596 1175569597 1175569598 1175569599 1175569600 1175569601 1175569602 1175569603 1175569604 1175570500 1175570501 1175577179 1175577165 1175577166 1175577167 1175570202 1175570203 1175570204 1175570205 1175570206 1175570207 1175570211 1175570499 1175565049 1175571000 1175571001 1175571002 1175571003 1175571004 1175571005 1074501792 1074501791 1175572509 1175572510 1175572511 1175572512 1175572513 1175570950 1175570951 1175570952 1175570223 1175570224 1175570225 1175570226 1175570227 1175570228 1175570229 1175570230 1175570231 1175570924 1175570925 1175573873 1175573786 1175573787 1175572450 1175572451"/>
    </vehicle>
    <vehicle id="mot6" type="mot_motorcycle" depart="6.00" departLane="best">
        <route edges="1175575926 1175575927 1175575928 1175575929 1175575358 1175575359 821504316 -79711789 -633053586 1175568183 1175568182 1175568181 -79092031 1175569595 1175569596 1175569597 1175569598 1175569599 1175569600 1175569601 1175569602 1175569603 1175569604 1175570500 1175570501 1175577179 1175577165 1175577166 1175577167 1175570202 1175570203 1175570204 1175570205 1175570206 1175570207 1175570211 1175570213 1175570214 1175570215 1175570216 1175570217 1175570212 1175569365 1175569366 1175569936 1175569937 1175569938 1175569939 1175569940 1175569941 1175571129 1175571130 1175571123 1175571124 1175570131 1175570132 1175570133 1175570134 1175570135 1175576560 1175576561 1175576562 1175576563 1175576564 1175576552 1175576553 1175576554 1175576555 1175566909"/>
    </vehicle>
    <vehicle id="mot7" type="mot_motorcycle" depart="7.00" departLane="best">
        <route edges="1175565499 1175565498 1175563794 1175563793 1175563792 1175563791 1175563790 1175563801 1175563800 1175563799 1175563798 1175563797 1175563796 1175563795 1175563789 435398045 1175572411 1175572412 1175572413 821611279 1175576591 1175576592 1175569382 1175569383 1175569384 1175571124 1175571125 1175571126 1175571127 1175571143 1175571144 1175576623 1175576624 1175576625 1175576626 1175576627 1175576628 1175576629 1175576630 1175576631 107286368 1175568828 1175563091 1175568955 1175575226 1175575227 1175575228 894446023 1175568843 1175568844 1175568845 1175576516 1175576517 1175576518 1175568908 1175568909 107286353 -107286330 1175574280 1175574281 1175574282 1175574283 1175574284 1175574007 1175574008 1175574009 1175574010 1175574011 1175574012 1175574013 1175569564"/>
    </vehicle>
    <vehicle id="mot8" type="mot_motorcycle" depart="8.00" departLane="best">
        <route edges="1175576794 1175576795 1175564004 1175565891 1175565890 1175565889 1175565888 1175573582 1175573583 1175573584 1175567306 1175563835 1175563834 1175563833 1175563832 1175563831 1175563830 1175563838 1175563837 1175563836 1175571023 1175571024 1175571026 1175571027 1175571028 1175571029 1175571030 1175571031 1175571025 1175572872 1175572873 1175572874 1175572875 88747219 1175576339 99555816 1175570198 -79536710 1175563533 1175563532 1175563531 1175563514 1175563513 1175563588 1175563587 79536649 -247462340 1175567099 1175567098 1175567097 1175567096 1175567095 1175567094 1175567093 1175567092 1175567091 1175567248 1175575414 1175566847 79536405 1175566473"/>
    </vehicle>
    <vehicle id="mot9" type="mot_motorcycle" depart="9.00" departLane="best">
        <route edges="1175563879 821948996 1175576787 821949413 1175563928 1175563927 1175563926 1175563925 1175565019 1175565018 1175565027 1175565026 1175565025 1175565024 1175565023 1175565022 1175565021 1175576393 1175576394 1175576395 1175576396 1175576397 1175576398 1175576399 1175576388 1175576389 1175576390 1175576391 1175576392 -571835452 1175575770 1175575182 1175575183 1175575184 1175563478 1175563477 1175563476 1175575177 1175564627 1175564626"/>
    </vehicle>
    <vehicle id="mot10" type="mot_motorcycle" depart="10.00" departLane="best">
        <route edges="825917639 1175569176 1175569177 1175572628 1175572629 1175572614 1175572615 824685314 1175572736 1175572737 1175572738 1175572739 1175572740 1175572741 1175575962 1175575963 1175575964 1175575965 1175575966 1175572752 1175572753 1175572754 1175572755 1175572756 1175569124 1175569125 1175569126 1175569127 1175569128 1175569129 1175569130 1175562908 1175562907 1175562900 1175562899 1175563782 1175563781 1175563780 1175563779 1175563778 1175563777 -247536039 1175566583 1175566582 1175566581 1175566580 1175566579 1175566578 1175563796 1175563795 1175563789 1175563788 1175565212 1175565211 1175565210 1175565209 1175565208 1175565207 1175565206 1175576822 1175576823 1175576824 1175570939 1175570940 1175570941 1175573208 1175573209 1175573210 1175573211 1175573212 1175572321 1175572322 1175572324 1175572325 1175572326 1175572327 1175572328 1175572329 1175572323 376279915 1175570281 1175570282 79091661 1175566275 1175566274 1175565825 1175565824 1175565823 1175565822 1175567500 1175565923 1175565922 626962595 1175575637 1175575638 1175575639 1175575640 1175575641 1175569319 1175569320 1175569321 1175569322 1175565944 1175573694 1175573695 1175567798 1175567797 1175567796 1175567795 1175567794 1175565864 1175565869 1175565868 1175565867 1175565866 1175567758"/>
    </vehicle>
    <vehicle id="mot11" type="mot_motorcycle" depart="11.00" departLane="best">
        <route edges="1175563793 1175563792 1175563791 1175563790 1175563801 1175563800 1175563799 1175563798 1175563797 1175563796 1175563795 1175563789 435398045 1175572411 1175572412 1175572413 821611279 1175576591 1175576592 1175569382 1175569383 1175569384 1175571124 1175571125 1175571126 1175571127 1175571143 1175571144 1175576623 1175576624 1175576625 1175576626 1175576627 1175576628 1175576629 1175576630 1175576631 107286368 1175568828 1175563091 1175568955 1175575226 1175575227 1175575228 894446023 1175568843 1175568844 1175568845 1175576516 1175568934 1175568935 1175568990"/>
    </vehicle>
    <vehicle id="mot12" type="mot_motorcycle" depart="12.00" departLane="best">
        <route edges="1175566650 1175575384 1175573184 1175569665 1175569666 1175569669 1175569670 1175569671 1175569672 1175569673 1175569674 1175569675 1175569676 1175569667 1175569668 1175569583 1175569584 1175569601 -782472048 821524259 1175573342 1175573343 1175573344 1175573345 1175573346 1175573347 1175573348 1175573349 1175569988 1175573841 1175573842 1175564164 1175564163 1175570000 1175570001 1175570002 1175569994 1175569995 1175569996 1175569997 1175569998 1175569999 1175575319 1175566022 1175566021 1175566020 1175573424 1175573425 1175573426 1175573427 1175570355 1175568378 1175568377 1175568376 1175568375 1175568374 1175568373 1175568372 -821948040 -821948039 1175567565 1175567564 1175567563 1175567562 1175567561 1175567560 1175567559 1175573246"/>
    </vehicle>
    <vehicle id="mot13" type="mot_motorcycle" depart="13.00" departLane="best">
        <route edges="1175573137 1175576994 1175565731 1175565730 1175565729 1175568097 1175570562 1175570563 1175570564 1175570565 1175570566 1175570567 1175570726 1175570727 1175570735 1175570736 1175572357 1175572358 1175564097 1175564096 1175564095 1175564094 1175570427 1175570428 1175570411 1175570412 1175570413 1175570414 1175570415 1175570416 1175570417 1175570418 1175570419 1175570420 893436350 1175576501 1175576502 1175564049 1175564048 1175564047 1175576774 1175576775 1175576776 1175576777 1175572293 1175572294 1175572295 1175572296 91859871 91859826 1175576784 96314896 1175577055 1175577056 1175577057 1175569028 1175569029 1175576796 1175576797 1175570278 1175570279 1175570280 1175570281 1175570282 79091661 1175566275 1175566274 1175565825 1175565824 1175565823 1175565822 1175567500 1175565923 1175565922 626962595 1175563387 1175563386"/>
    </vehicle>
    <vehicle id="mot14" type="mot_motorcycle" depart="14.00" departLane="best">
        <route edges="1175573874 1175573714 1175573715 1175570934 1175570935 1175570936 1175570963 1175570964 1175570965 1175570966 1175570955 1175570956 1175570957 1175570958 1175570959 1175570944 1175570942 1175570945 1175570946 1175571096 1175571097 1175571098 1175571099 1175571100 1175571101 1175571102 90972291 1175569383 1175569384 1175571124 1175571125 1175571126 1175571127 1175571143 1175571144 1175571145 1175575019 1175575020 1175575021 1175574948 1175574949 1175574950 1175574951 1175574952 1175574953 1175564177 1175564176 1175564201 1175564200 1175564199 1175564198 1175564197 1175564196 1175564186 1175564175 1175574115 1175574116 1175563016 1175563015 1175563014 1175574995 1175574996 1175574997 1175574998 1175574999 1175575000 1175575001 1175569786"/>
    </vehicle>
    <vehicle id="mot15" type="mot_motorcycle" depart="15.00" departLane="best">
        <route edges="-91859787 1175576766 1175572290 1175572291 1175572292 1175572293 1175572294 1175572295 1175572296 91859871 91859826 1175576784 96314896 1175577055 1175577056 1175577057 1175577058 1175570384 1175570385 1175570386 1175570387 1175570388 1175570389 1175572067 1175572068 1175572069 1175570349 1175570350 1175576505 1175576506 1175575381 627041177 1175577183 1175577184 1175577185 1175570050 1175570051 1175570052 1175570053 1175570054 1175570055 1175570056 1175577162 1175577163 788626933 1175564043 1175564042 1175563534 1175563533 1175563532 1175563531 1175563530 1175563529 1175563528 1175563527 1175563526 1175563525 79092031 821504319"/>
    </vehicle>
    <vehicle id="mot16" type="mot_motorcycle" depart="16.00" departLane="best">
        <route edges="1175567093 1175567092 1175567091 1175569480 1175569481 1175569494 1175569495 1175569496 1175569497 1175569482 1175569483 1175569484 1175569485 1175569486 1175569487 1175569488 1175569489 1175569490 1175569491 1175569492 1175569493 1175566678 1175566677 1175566676 1175566675 1175566674 1175566673 429965962 1175570394 1175570323 1175570324 1175570329 1175570699 1175570700 1175570701 1175570702 1175573200 1175573201 1175573202 1175569948 1175569949 1175569950 1175569951 1175569952 1175569953 1175569944 1175569945 1175569946 1175576575 1175576576 1175576577 1175570439 1175570440 1175570441 1175570442 1175570443 1175570444 1175570445 1175570446 1175570447 1175570437 1175570438 1175570251 1175570252 1175572547 1175572548 1175572553 1175572554 1175572555 1175572556 1175572557 1175572558 1175572559 1175572549 1175563156 1175565624 1175563876"/>
    </vehicle>
    <vehicle id="mot17" type="mot_motorcycle" depart="17.00" departLane="best">
        <route edges="1175575062 1175574437 1175574438 1175574439 1175575240 1175575241 1175575242 1175575243 1175575244 1175575245 1175575246 1175576368 1175567387 1175574399 1175574408 1175574417 1175574427 1175574428 1175574429 1175574430 1175574431 1175574400 1175574401 1175574402 1175574403 1175574404 1175574405 1175574406 1175574407 1175574875 1175574876 1175574877 1175574878 1175574879 1175574880 1175574881 1175574818 1175574819 1175574820 1175574821 1175574822 1175574823 1175574824 1175566772 1175566771 1175575250 1175575484 1175575501 1175575502 1175575503 1175574483 1175574484 247478967 247478969 1175563636 1175574969 1175563644 1175563643 1175563642 1175563641 1175563640 1175567429 1175567428 1175567427 1175563651 1175563650 1175563658 1175574161 1175574162 1175574163 1175574164 1175574165"/>
    </vehicle>
    <vehicle id="mot18" type="mot_motorcycle" depart="18.00" departLane="best">
        <route edges="1175569873 1175569874 1175573217 1175573218 821611279 1175576550 1175576551 1175576557 1175576558 1175576559 1175570142 1175570143 142724426 90972275 1175576587 1175576588 1175576589 1175576590 1175570948 1175570949 1175570950 1175572498 1175572499 1175572500 1175572501 1175572502 1175572503 1175572504 1175576478 893393728 1175576498 893394229 1175576479 1175576480 1175572069 1175572070 1175572063 1175570390 626987871 1175570356 1175570357 1175570358 1175570359 1175570360 1175570361 1175570362 1175570351 1175570352 1175570353 1175570354 1175565891 1175565890 1175565889 1175565888 1175573243 1175573244 1175567304 1175567303 1175567302 1175567301 1175567300 1175567295 1175571679"/>
    </vehicle>
    <vehicle id="mot19" type="mot_motorcycle" depart="19.00" departLane="best">
        <route edges="1175565730 1175565729 1175568097 1175570562 1175570563 1175570564 1175570565 1175570566 1175570567 1175570726 1175570727 1175570728 1175570729 1175573141 1175573142 1175570580 1175570581 1175570570 1175570571 1175570572 1175570573 48483045 48870924 48870923 1175576721 1175576712 1175570640 1175570641 1175570650 1175570651 1175570652 1175570653 1175570654 1175570655 1175570656 1175570657 1175570642 1175570643 1175570644 1175570645 1175570646 1175570647 1175570648 1175570649 1175572273 1175572274 1175572275 1175572276 1175572277 1175572278 1175570391 1175572481 1175572482 1175572483 893393729 1175577092 1175577093 1175577094 1175577095 1175577096 1175577097 1175564162 1175564161 1175564160 1175564159 1175564158 1175564157 1175572184 1175577169 1175577170 1175568570 1175568569 1175574944 1175574945 1175570187 1175570188 1175569571 1175569572 1175569573 167671622 1175569430 1175569431 1175569441 1175569449 1175569453 1175569454 1175569455 1175569456 1175569457 1175569432 1175569433 1175569434 1175569435 1175569436 1175569437 1175569438 1175569439 1175569440 1175569442 1175569443 1175569444 1175569445 1175569636 1175569637 1175569638 1175569639 1175569640 1175569641 1175566791 1175566811 1175566810 1175566809 1175566808 1175566807 1175569650 1175574795 1175575114 1175575115 1175575116 1175575117 1175575118 1175575119 1175575120 1175575121 1175575154 1175575155 1175575156 1175575157 1175575158 1175575159 1175575160 1175575161 1175575162 1175575164 1175564659 1175564658"/>
    </vehicle>
    <vehicle id="mot20" type="mot_motorcycle" depart="20.00" departLane="best">
        <route edges="1175576322 1175570579 1175570580 1175570581 1175570570 1175570571 1175570572 1175570573 48483045 1175571398 1175571399 1175571400 1175571401 1175570504 1175570505 1175570506 1175570541 1175570542 1175570543 1175570544 1175570545 435398045 1175572411 1175572412 1175572413 821611279 1175576550 1175576551 1175576557 1175576558 1175576559 1175576560 1175576561 1175576562 1175576563 1175576564 1175576552 1175576553 1175576554 1175576555 1175576556 1006064981 1175569348 1175569349 1175569350 1164047166 1175576925 1175576926 1175576927 1175576928 1175571076 1175571077 1175571079 1175571080 1175571081 1175571082 1175571083 -917429257 1175568349"/>
    </vehicle>
    <vehicle id="mot21" type="mot_motorcycle" depart="21.00" departLane="best">
        <route edges="1175569218 825922754 -825922756 1175563283 1175563282 1175576141 1175576142 1175576143 1175576144 1175576145 1175572876 1175569352 1175569353 1175569141 1175569142 1175569163 1175569164 1175569165 1175569153 1175569154 1175569155 1175569156 1175569157 1175567788 1175572842 1175572843 1175572844 1175572845 1175572846 1175572847 1175572848 1175575711 1175565345 1175565344 1175565650 1175565316 1175565315 1175564225 1175564224 1175564223 1175564222 1175564221 1175564220 1175572551 1175572552 627028292 1175571111 1175571112 -571385405 1175565646 1175565645 1175565621 1175567731 1175565685 1175565684 1175565683 1175565682 1175567663 1175567662 1175567661 1175568763"/>
    </vehicle>
    <vehicle id="mot22" type="mot_motorcycle" depart="22.00" departLane="best">
        <route edges="1175563711 1175563710 1175566852 1175566851 1175566850 1175569721 1175569722 1175569723 1175569724 1175569804 1175569805 1175569806 1175574564 1175574565 1175566406 1175566405 1175566404 1175566403 1175576669 1175576670 429965959 429965960 1175570400 1175570401 1175570394 1175570323 1175570324 1175570329 1175570699 1175570700 1175570701 1175570702 1175573200 1175573201 1175573202 1175569948 1175576603 1175576604 1175576605 1175576606 1175576607 1175576608 1175576601 1175576602 1175572460 1175572461 1175572470 1175572471 1175572472 1175572473 1175572474 1175572475 1175572476 1175572477 1175572462 1175572463 1175572464 1175575295 1175575296 1175570586 1175576735 1175576736 1175576738 1175576739 1175576740 1175576741 1175576742 1175576743 1175576744 1175576745 1175576737 48483043 48870937 48870938 1175571012 1175571013 1175571016 1175571017 1175571018 1175564103 1175564102 1175564101 1175564100 1175564055 1175564054 1175564053 1175564052 1175564051 1175564050 1175576220 1175573170 1175573171 1175573181 1175576989 1175573124"/>
    </vehicle>
    <vehicle id="mot23" type="mot_motorcycle" depart="23.00" departLane="best">
        <route edges="1175569373 1175569374 1175569375 1175570499 1175565049 1175571000 1175571001 1175571002 1175571003 1175571004 1175571005 1074501792 1074501791 1175572509 1175572510 1175572511 1175572512 1175572513 1175570950 1175570951 1175570952 1175570223 1175570224 1175570225 1175570226 1175570227 1175570228 1175570229 1175570230 1175570231 1175570937 1175570938 1175570939 1175572592 1175577022 1175577023 1175577024 1175577025 1175577026 1175575729 1175575730 1175575731 1175575732 1175575733 1175572340 1175572341 1175572342 1175572343 1175572344 1175572345 1175572346 1175572347 1175573094 1175573095 1175573096 1175573097 1175571209 1175571210 1175571211 1175571212 1175571213"/>
    </vehicle>
    <vehicle id="mot24" type="mot_motorcycle" depart="24.00" departLane="best">
        <route edges="1175568701 1175570542 1175570543 1175570544 1175571252 1005800376 1175572270 1175572271 1175572272 1175573561 1175573562 1175573563 1175573564 1175573565 1175576843 1175576844 1175572334 1175572335 1175573208 1175573209 1175573210 1175573211 1175573212 1175572321 1175572322 1175572324 1175572325 1175572326 1175572327 1175572328 1175572329 1175572323 376279915 1175570281 1175570282 1175567529 1175567528 1175567527 1175567526 1175567525 1175567524 1175567523 1175567522 1175564004 1175565891 1175565890 1175565889 1175565888 1175565753 1175565752 1175571992 1175571993"/>
    </vehicle>
    <vehicle id="mot25" type="mot_motorcycle" depart="25.00" departLane="best">
        <route edges="1175568869 1175568870 1175568871 1175562963 107286333 1175569004 1175568996 1175568997 1175571055 1175571056 1175571057 1175571058 1175571059 1175571060 1175571061 1175571062 1164047165 1006064980 1175570136 1175570137 1175570138 1175570139 1175570140 1175570141 1175570142 1175570143 142724426 1175576586 1175576582 1175576583 1175576584 1175576585 1175570439 1175570440 1175570441 1175570442 1175570443 1175570444 1175570445 1175570446 1175570447 1175570437 1175570438 1175570251 1175570252 1175570253 1175570254 1175570508 1175570509 1175570510 1175570511 1175570504 1175568707 1175568708 1175568709 1175564237 1175564236 1175564235 1175564234 1175564233 1175564232 1175564231 1175564230 1175564229 1175568705 1175568706 1005776889 1175564228"/>
    </vehicle>
    <vehicle id="mot26" type="mot_motorcycle" depart="26.00" departLane="best">
        <route edges="1175566448 1175569742 1175569734 1175569735 1175563713 1175563712 1175563711 1175563710 1175566852 1175566851 1175566850 1175569721 1175569722 1175569723 1175569724 1175569804 1175569805 1175569806 1175574564 1175574565 1175566406 1175566405 1175566404 1175566403 1175576669 1175576670 429965959 429965960 1175570400 1175570401 1175570394 1175570323 1175570324 1175570329 1175570699 1175570700 1175570701 1175570702 1175573200 1175573201 1175573202 1175569948 1175576603 1175576604 1175576605 1175576606 1175576607 1175576608 1175576601 1175576602 1175572460 1175572461 1175572470 1175572471 1175572472 1175572473 1175572474 1175572475 1175572476 1175572477 1175572462 1175572463 1175572464 1175575295 1175575296 1175570586 1175576735 1175576736 1175576738 1175576739 1175576740 1175576741 1175576742 1175576743 1175576744 1175576745 1175576737 48483043 48870937 48870938 1175571012 1175571013 1175571016 1175571017 1175571018 1175564103 1175564102 1175570735 1175570736"/>
    </vehicle>
    <vehicle id="mot27" type="mot_motorcycle" depart="27.00" departLane="best">
        <route edges="1175569533 1175563989 1175563988 1175563987 1175563986 -823928974 1175570338 1175570339 1175565090 1175565089 1175565094 1175565093 1175565092 1175565091 1175567693 1175567692 1175567690 1175568195 1175568194 1175568193 1175568192 1175568191 1175568202 1175568201 1175568200 1175568199 1175568198 1175568197 1175568196 1175572110 1175572111 1175572112 1175572113 1175572114 1175572115 1175572116 1175572106 1175572107 1175572108 1175570127 1175570128 1175571512 572161992 1175575589 1175575590 1175575591 1175570158 1175570159 1175575559 1175575560 1175575561 1175575562 1175575563 1175575564 1175575565 1175575566 79091661 79091831 1175576806 1175576807 1175576808 1175576809 1175576810 1175576782 1175576783 1175576784 96314896 1175577055 1175577056"/>
    </vehicle>
    <vehicle id="mot28" type="mot_motorcycle" depart="28.00" departLane="best">
        <route edges="1175574355 1175566772 1175566771 1175565151 1175565150 1175565149 1175565148 1175565147 1175565146 1175565145 1175565139 1175565138 429965959 429965960 1175570400 1175570401 1175570394 1175570323 1175570324 1175570329 1175570699 1175570700 1175570701 1175570702 1175573200 1175573201 1175573202 1175569948 1175569949 1175569950 1175569951 1175569952 1175569953 1175569944 1175569945 1175569946 1175576575 1175576576 1175576577 1175570439 1175570440 1175570441 1175570442 1175570443 1175570444 1175570445 1175570446 1175570447 1175570437 1175570438 1175570251 1175570252 1175572547 1175572548 1175572553 1175572554 1175572555 1175572556 1175572557 1175572558 1175572559 1175572549 1175572550 1175572551 1175572668 1175572669 1175572670 823517067"/>
    </vehicle>
    <vehicle id="mot29" type="mot_motorcycle" depart="29.00" departLane="best">
        <route edges="1175568849 1175568850 1175569812 1175569813 1175569814 1175569815 247535959 247535958 1175564175 1175564174 571127533 571127532 1175576643 1175576644 1175569837 1175576632 1175576633 1175576634 1175568636 1175568637 1175576615 1175576616 1175576617 1175576618 1175574994 1175569371 1175573200 1175573201 1175573202 1175569948 1175576603 1175576604 1175576605 1175576606 1175576607 1175576608 1175576601 1175576602 1175576498 893394229 1175576479"/>
    </vehicle>
    <vehicle id="mot30" type="mot_motorcycle" depart="30.00" departLane="best">
        <route edges="1175573570 1175567457 1175567456 1175567455 1175567453 1175567452 1175566148 1175566043 1175566042 1175566041 1175570106 1175570107 1175570108 1175568380 1175573883 1175573884 1175573885 1175573886 1175576810 1175576782 1175576783 1175576784 96314896 1175577055 1175577056 1175577057 1175577058 1175570384 1175570385 1175570386 1175570387 1175570388 1175570389 1175572067 1175572068 1175572069 1175570349 1175570350 1175576505 1175576506 1175575381 1175577175 1175577176 1175572186 1175572187 1175577169 1175577170 1175568570 1175568569 1175566879 1175566878 1175566877 1175574851 1175574854 1175574855 1175574865 1175574866"/>
    </vehicle>
    <vehicle id="mot31" type="mot_motorcycle" depart="31.00" departLane="best">