<?xml version="1.0" encoding="UTF-8"?>

<!-- generated on 2023-07-01 23:25:28.649737 by randomTrips.py v1_18_0+0023-ef591d47046
<configuration>
    <duarouter-routing-threads value="4"/>
    <end value="1000.0"/>
    <fringe-start-attributes value="departSpeed=&quot;max&quot;"/>
    <max-distance value="10000.0"/>
    <min-distance value="4000.0"/>
    <net-file value="pasto.net.xml.gz"/>
    <period value="1.0"/>
    <random value="True"/>
    <remove-loops value="True"/>
    <route-file value="pasto.truck.rou.xml"/>
    <trip-attributes value="departLane=&quot;best&quot;"/>
    <output-trip-file value="pasto.truck.trips.xml"/>
    <prefix value="tru"/>
    <validate value="True"/>
    <vclass value="truck"/>
    <vehicle-class value="truck"/>
    <via-edge-types value="highway.motorway,highway.motorway_link,highway.trunk_link,highway.primary_link,highway.secondary_link,highway.tertiary_link"/>
</configuration>
-->

<!-- generated on 2023-07-01 23:25:21 by Eclipse SUMO duarouter Version v1_18_0+0023-ef591d47046
<configuration xmlns:xsi="http://www.w3.org/2001/XMLSchema-instance" xsi:noNamespaceSchemaLocation="http://sumo.dlr.de/xsd/duarouterConfiguration.xsd">

    <input>
        <net-file value="pasto.net.xml.gz"/>
        <route-files value="pasto.truck.trips.xml"/>
    </input>

    <output>
        <output-file value="pasto.truck.trips.xml.tmp"/>
        <alternatives-output value="NUL"/>
        <write-trips value="true"/>
    </output>

    <processing>
        <remove-loops value="true"/>
        <routing-threads value="4"/>
    </processing>

    <time>
        <begin value="0.0"/>
        <end value="1000.0"/>
    </time>

    <report>
        <no-warnings value="true"/>
        <ignore-errors value="true"/>
        <no-step-log value="true"/>
    </report>

</configuration>
-->

<routes xmlns:xsi="http://www.w3.org/2001/XMLSchema-instance" xsi:noNamespaceSchemaLocation="http://sumo.dlr.de/xsd/routes_file.xsd">
    <vType id="tru_truck" vClass="truck"/>
    <trip id="tru0" type="tru_truck" depart="0.00" departLane="best" from="1175566994" to="1175569090"/>
    <trip id="tru1" type="tru_truck" depart="1.00" departLane="best" from="1175566339" to="1175568225"/>
    <trip id="tru2" type="tru_truck" depart="2.00" departLane="best" from="1175567438" to="821880830"/>
    <trip id="tru3" type="tru_truck" depart="3.00" departLane="best" from="1175563037" to="1175572085"/>
    <trip id="tru4" type="tru_truck" depart="4.00" departLane="best" from="1175573455" to="1175564449"/>
    <trip id="tru5" type="tru_truck" depart="5.00" departLane="best" from="1175563378" to="1175571045"/>
    <trip id="tru6" type="tru_truck" depart="6.00" departLane="best" from="1175563107" to="1175571472"/>
    <trip id="tru7" type="tru_truck" depart="7.00" departLane="best" from="1175563673" to="1175576716"/>
    <trip id="tru8" type="tru_truck" depart="8.00" departLane="best" from="1175576225" to="1175569606"/>
    <trip id="tru9" type="tru_truck" depart="9.00" departLane="best" from="1175567692" to="1175575909"/>
    <trip id="tru10" type="tru_truck" depart="10.00" departLane="best" from="1175572876" to="1175576617"/>
    <trip id="tru11" type="tru_truck" depart="11.00" departLane="best" from="1175563311" to="1175576494"/>
    <trip id="tru12" type="tru_truck" depart="12.00" departLane="best" from="1175574860" to="1175570669"/>
    <trip id="tru13" type="tru_truck" depart="13.00" departLane="best" from="1175567752" to="1175576079"/>
    <trip id="tru14" type="tru_truck" depart="14.00" departLane="best" from="1175568223" to="1175574490"/>
    <trip id="tru15" type="tru_truck" depart="15.00" departLane="best" from="1175571493" to="1175574030"/>
    <trip id="tru16" type="tru_truck" depart="16.00" departLane="best" from="1175574608" to="1175568763"/>
    <trip id="tru17" type="tru_truck" depart="17.00" departLane="best" from="1175564393" to="1175568906"/>
    <trip id="tru18" type="tru_truck" depart="18.00" departLane="best" from="1175570288" to="79091718"/>
    <trip id="tru19" type="tru_truck" depart="19.00" departLane="best" from="1175575203" to="1175564503"/>
    <trip id="tru20" type="tru_truck" depart="20.00" departLane="best" from="1175567413" to="1175568025"/>
    <trip id="tru21" type="tru_truck" depart="21.00" departLane="best" from="1175568143" to="1175567992"/>
    <trip id="tru22" type="tru_truck" depart="22.00" departLane="best" from="1175569733" to="1175576046"/>
    <trip id="tru23" type="tru_truck" depart="23.00" departLane="best" from="1175576109" to="48268655"/>
    <trip id="tru24" type="tru_truck" depart="24.00" departLane="best" from="1175562915" to="1175565992"/>
    <trip id="tru25" type="tru_truck" depart="25.00" departLane="best" from="1175564658" to="1175564335"/>
    <trip id="tru26" type="tru_truck" depart="26.00" departLane="best" from="1175571054" to="1175569194"/>
    <trip id="tru27" type="tru_truck" depart="27.00" departLane="best" from="1175565078" to="1175566397"/>
    <trip id="tru28" type="tru_truck" depart="28.00" departLane="best" departSpeed="max" from="-540970693" to="1175567952"/>
    <trip id="tru29" type="tru_truck" depart="29.00" departLane="best" from="1175567180" to="1175577022"/>
    <trip id="tru30" type="tru_truck" depart="30.00" departLane="best" from="571434361" to="1175563611"/>
    <trip id="tru31" type="tru_truck" depart="31.00" departLane="best" from="1175571275" to="1175571424"/>
    <trip id="tru32" type="tru_truck" depart="32.00" departLane="best" from="-1125899347" to="1175576719"/>
    <trip id="tru33" type="tru_truck" depart="33.00" departLane="best" from="1175567552" to="571287605"/>
    <trip id="tru34" type="tru_truck" depart="34.00" departLane="best" from="1175563648" to="1175570703"/>
    <trip id="tru35" type="tru_truck" depart="35.00" departLane="best" from="-540970697" to="1175569598"/>
    <trip id="tru36" type="tru_truck" depart="36.00" departLane="best" from="1175575745" to="1175567622"/>
    <trip id="tru37" type="tru_truck" depart="37.00" departLane="best" from="1175575597" to="1175571874"/>
    <trip id="tru38" type="tru_truck" depart="38.00" departLane="best" from="1175563508" to="1175575680"/>
    <trip id="tru39" type="tru_truck" depart="39.00" departLane="best" from="1175574899" to="1175565544"/>
    <trip id="tru40" type="tru_truck" depart="40.00" departLane="best" departSpeed="max" from="-572024636" to="1175565427"/>
    <trip id="tru41" type="tru_truck" depart="41.00" departLane="best" from="1175575430" to="79091994"/>
    <trip id="tru42" type="tru_truck" depart="42.00" departLane="best" departSpeed="max" from="1175568356" to="1175576995"/>
    <trip id="tru43" type="tru_truck" depart="43.00" departLane="best" from="1175567681" to="1175575649"/>
    <trip id="tru44" type="tru_truck" depart="44.00" departLane="best" from="-96319727" to="573331703"/>
    <trip id="tru45" type="tru_truck" depart="45.00" departLane="best" departSpeed="max" from="1175563895" to="1175571952"/>
    <trip id="tru46" type="tru_truck" depart="46.00" departLane="best" from="1175575123" to="1175568026"/>
    <trip id="tru47" type="tru_truck" depart="47.00" departLane="best" from="1175576201" to="1175574937"/>
    <trip id="tru48" type="tru_truck" depart="48.00" departLane="best" from="1175576365" to="1175577132"/>
    <trip id="tru49" type="tru_truck" depart="49.00" departLane="best" from="1175564628" to="1175568552"/>
    <trip id="tru50" type="tru_truck" depart="50.00" departLane="best" from="1175564097" to="1175569445"/>
    <trip id="tru51" type="tru_truck" depart="51.00" departLane="best" from="1175574019" to="1175568060"/>
    <trip id="tru52" type="tru_truck" depart="52.00" departLane="best" from="1175562843" to="1175575767"/>
    <trip id="tru53" type="tru_truck" depart="53.00" departLane="best" from="-79711774" to="1175572908"/>
    <trip id="tru54" type="tru_truck" depart="54.00" departLane="best" from="821970510" to="1175565659"/>
    <trip id="tru55" type="tru_truck" depart="55.00" departLane="best" from="1175569880" to="1175570098"/>
    <trip id="tru56" type="tru_truck" depart="56.00" departLane="best" from="1175570959" to="571371184"/>
    <trip id="tru57" type="tru_truck" depart="57.00" departLane="best" from="1175573358" to="1175572600"/>
    <trip id="tru58" type="tru_truck" depart="58.00" departLane="best" from="1175575835" to="1175564259"/>
    <trip id="tru59" type="tru_truck" depart="59.00" departLane="best" from="1175567910" to="1175573035"/>
    <trip id="tru60" type="tru_truck" depart="60.00" departLane="best" from="1175563908" to="1175563683"/>
    <trip id="tru61" type="tru_truck" depart="61.00" departLane="best" from="1175572224" to="1175572368"/>
    <trip id="tru62" type="tru_truck" depart="62.00" departLane="best" departSpeed="max" from="-571286685" to="89280550"/>
    <trip id="tru63" type="tru_truck" depart="63.00" departLane="best" from="1175567408" to="1175563168"/>
    <trip id="tru64" type="tru_truck" depart="64.00" departLane="best" from="1175569668" to="1175573164"/>
    <trip id="tru65" type="tru_truck" depart="65.00" departLane="best" from="1175566933" to="1175564449"/>
    <trip id="tru66" type="tru_truck" depart="66.00" departLane="best" from="1175573014" to="1175565087"/>
    <trip id="tru67" type="tru_truck" depart="67.00" departLane="best" from="1175575987" to="1175574236"/>
    <trip id="tru68" type="tru_truck" depart="68.00" departLane="best" from="1175575783" to="1175576044"/>
    <trip id="tru69" type="tru_truck" depart="69.00" departLane="best" from="1175576192" to="1175568964"/>
    <trip id="tru70" type="tru_truck" depart="70.00" departLane="best" from="1175569175" to="1175573261"/>
    <trip id="tru71" type="tru_truck" depart="71.00" departLane="best" from="1175565308" to="1175567756"/>
    <trip id="tru72" type="tru_truck" depart="72.00" departLane="best" from="1175577056" to="1175568562"/>
    <trip id="tru73" type="tru_truck" depart="73.00" departLane="best" from="1175569548" to="1175564032"/>
    <trip id="tru74" type="tru_truck" depart="74.00" departLane="best" from="-79535739" to="1175572114"/>
    <trip id="tru75" type="tru_truck" depart="75.00" departLane="best" departSpeed="max" from="-824681930" to="1175571937"/>
    <trip id="tru76" type="tru_truck" depart="76.00" departLane="best" from="1175564832" to="1175568976"/>
    <trip id="tru77" type="tru_truck" depart="77.00" departLane="best" from="79536765" to="1175566144"/>
    <trip id="tru78" type="tru_truck" depart="78.00" departLane="best" from="-79536851" to="-824685967"/>
    <trip id="tru79" type="tru_truck" depart="79.00" departLane="best" departSpeed="max" from="1175564560" to="1175571938"/>
    <trip id="tru80" type="tru_truck" depart="80.00" departLane="best" from="1175562801" to="824633752"/>
    <trip id="tru81" type="tru_truck" depart="81.00" departLane="best" from="1175569494" to="572145000"/>
    <trip id="tru82" type="tru_truck" depart="82.00" departLane="best" from="1175573075" to="1175566461"/>
    <trip id="tru83" type="tru_truck" depart="83.00" departLane="best" from="1175572051" to="1175564372"/>
    <trip id="tru84" type="tru_truck" depart="84.00" departLane="best" from="1175565757" to="1175575231"/>
    <trip id="tru85" type="tru_truck" depart="85.00" departLane="best" from="1175569239" to="1175570752"/>
    <trip id="tru86" type="tru_truck" depart="86.00" departLane="best" from="1175572460" to="1175571754"/>
    <trip id="tru87" type="tru_truck" depart="87.00" departLane="best" from="1175574488" to="1175576453"/>
    <trip id="tru88" type="tru_truck" depart="88.00" departLane="best" from="-1002561246" to="-824620502"/>
    <trip id="tru89" type="tru_truck" depart="89.00" departLane="best" from="1175563491" to="-821966810"/>
    <trip id="tru90" type="tru_truck" depart="90.00" departLane="best" from="-582809727" to="626755087"/>
    <trip id="tru91" type="tru_truck" depart="91.00" departLane="best" from="1175572083" to="1175572858"/>
    <trip id="tru92" type="tru_truck" depart="92.00" departLane="best" from="-824653221" to="1175566894"/>
    <trip id="tru93" type="tru_truck" depart="93.00" departLane="best" from="1175575215" to="108333854"/>
    <trip id="tru94" type="tru_truck" depart="94.00" departLane="best" from="1175568169" to="1175571885"/>
    <trip id="tru95" type="tru_truck" depart="95.00" departLane="best" from="1175565658" to="1175570296"/>
    <trip id="tru96" type="tru_truck" depart="96.00" departLane="best" from="1175567533" to="-824617714"/>
    <trip id="tru97" type="tru_truck" depart="97.00" departLane="best" from="1175576020" to="1175570984"/>
    <trip id="tru98" type="tru_truck" depart="98.00" departLane="best" from="1175570143" to="1175570299"/>
    <trip id="tru99" type="tru_truck" depart="99.00" departLane="best" from="1175575726" to="1175574501"/>
    <trip id="tru100" type="tru_truck" depart="100.00" departLane="best" from="1175563190" to="1175568067"/>
    <trip id="tru101" type="tru_truck" depart="101.00" departLane="best" from="1175576203" to="1175570764"/>
    <trip id="tru102" type="tru_truck" depart="102.00" departLane="best" from="1175568294" to="824196016"/>
    <trip id="tru103" type="tru_truck" depart="103.00" departLane="best" from="1175570168" to="1175573826"/>
    <trip id="tru104" type="tru_truck" depart="104.00" departLane="best" from="1175565660" to="1175568176"/>
    <trip id="tru105" type="tru_truck" depart="105.00" departLane="best" from="1175572121" to="-96319748"/>
    <trip id="tru106" type="tru_truck" depart="106.00" departLane="best" from="1175572083" to="78335842"/>
    <trip id="tru107" type="tru_truck" depart="107.00" departLane="best" departSpeed="max" from="1175568096" to="107286369"/>
    <trip id="tru108" type="tru_truck" depart="108.00" departLane="best" from="1175567682" to="1175565370"/>
    <trip id="tru109" type="tru_truck" depart="109.00" departLane="best" from="1175576847" to="1175564387"/>
    <trip id="tru110" type="tru_truck" depart="110.00" departLane="best" departSpeed="max" from="-571301432" to="1175575413"/>
    <trip id="tru111" type="tru_truck" depart="111.00" departLane="best" departSpeed="max" from="-571282742" to="1175565625"/>
    <trip id="tru112" type="tru_truck" depart="112.00" departLane="best" from="1175576559" to="1175563957"/>
    <trip id="tru113" type="tru_truck" depart="113.00" departLane="best" from="1175571648" to="1175569446"/>
    <trip id="tru114" type="tru_truck" depart="114.00" departLane="best" from="1175566594" to="1175568257"/>
    <trip id="tru115" type="tru_truck" depart="115.00" departLane="best" from="1175575481" to="1175574620"/>
    <trip id="tru116" type="tru_truck" depart="116.00" departLane="best" from="1175571757" to="1175569083"/>
    <trip id="tru117" type="tru_truck" depart="117.00" departLane="best" from="1175568937" to="1175576331"/>
    <trip id="tru118" type="tru_truck" depart="118.00" departLane="best" from="1175576977" to="1175570209"/>
    <trip id="tru119" type="tru_truck" depart="119.00" departLane="best" from="1175568328" to="-88370683"/>
    <trip id="tru120" type="tru_truck" depart="120.00" departLane="best" from="1175571819" to="1175570897"/>
    <trip id="tru121" type="tru_truck" depart="121.00" departLane="best" departSpeed="max" from="-824671961" to="1175571725"/>
    <trip id="tru122" type="tru_truck" depart="122.00" departLane="best" from="1175565794" to="1175570297"/>
    <trip id="tru123" type="tru_truck" depart="123.00" departLane="best" from="1175564836" to="1175572793"/>
    <trip id="tru124" type="tru_truck" depart="124.00" departLane="best" from="1175568237" to="1175562925"/>
    <trip id="tru125" type="tru_truck" depart="125.00" departLane="best" from="1175569436" to="1175571600"/>
    <trip id="tru126" type="tru_truck" depart="126.00" departLane="best" from="1175571307" to="1175571151"/>
    <trip id="tru127" type="tru_truck" depart="127.00" departLane="best" from="1175576106" to="1175565522"/>
    <trip id="tru128" type="tru_truck" depart="128.00" departLane="best" from="1175568847" to="1175576246"/>
    <trip id="tru129" type="tru_truck" depart="129.00" departLane="best" from="1175568284" to="1175571663"/>
    <trip id="tru130" type="tru_truck" depart="130.00" departLane="best" from="1175567985" to="1175574614"/>
    <trip id="tru131" type="tru_truck" depart="131.00" departLane="best" from="1175570282" to="1175569057"/>
    <trip id="tru132" type="tru_truck" depart="132.00" departLane="best" from="79536294" to="571388760"/>
    <trip id="tru133" type="tru_truck" depart="133.00" departLane="best" from="1175575240" to="1175563403"/>
    <trip id="tru134" type="tru_truck" depart="134.00" departLane="best" departSpeed="max" from="1175567902" to="1175570502"/>
    <trip id="tru135" type="tru_truck" depart="135.00" departLane="best" from="1175573922" to="1175570752"/>
    <trip id="tru136" type="tru_truck" depart="136.00" departLane="best" from="1175567853" to="79091829"/>
    <trip id="tru137" type="tru_truck" depart="137.00" departLane="best" departSpeed="max" from="1175568016" to="1175573186"/>
    <trip id="tru138" type="tru_truck" depart="138.00" departLane="best" from="1175563749" to="-824659717"/>
    <trip id="tru139" type="tru_truck" depart="139.00" departLane="best" from="1175570345" to="1175567667"/>
    <trip id="tru140" type="tru_truck" depart="140.00" departLane="best" departSpeed="max" from="1175571958" to="821243396"/>
    <trip id="tru141" type="tru_truck" depart="141.00" departLane="best" from="1175569610" to="1175567858"/>
    <trip id="tru142" type="tru_truck" depart="142.00" departLane="best" from="1175576443" to="1175574644"/>
    <trip id="tru143" type="tru_truck" depart="143.00" departLane="best" from="1175565739" to="-1007548955"/>
    <trip id="tru144" type="tru_truck" depart="144.00" departLane="best" from="1175574277" to="1175563242"/>
    <trip id="tru145" type="tru_truck" depart="145.00" departLane="best" from="-79091819" to="1175568058"/>
    <trip id="tru146" type="tru_truck" depart="146.00" departLane="best" from="1175564146" to="1175568806"/>
    <trip id="tru147" type="tru_truck" depart="147.00" departLane="best" from="1175564829" to="1175568208"/>
    <trip id="tru148" type="tru_truck" depart="148.00" departLane="best" from="1175567337" to="1175563952"/>
    <trip id="tru149" type="tru_truck" depart="149.00" departLane="best" from="1175566993" to="1175570580"/>
    <trip id="tru150" type="tru_truck" depart="150.00" departLane="best" from="1175564720" to="1175565084"/>
    <trip id="tru151" type="tru_truck" depart="151.00" departLane="best" from="1175575071" to="-89280769"/>
    <trip id="tru152" type="tru_truck" depart="152.00" departLane="best" from="1175566900" to="1146828865"/>
    <trip id="tru153" type="tru_truck" depart="153.00" departLane="best" from="1175576188" to="1175572459"/>
    <trip id="tru154" type="tru_truck" depart="154.00" departLane="best" from="1175573534" to="1175572723"/>
    <trip id="tru155" type="tru_truck" depart="155.00" departLane="best" from="1175570305" to="430650537"/>
    <trip id="tru156" type="tru_truck" depart="156.00" departLane="best" from="1175568426" to="1175569337"/>
    <trip id="tru157" type="tru_truck" depart="157.00" departLane="best" from="1175564154" to="-824697306"/>
    <trip id="tru158" type="tru_truck" depart="158.00" departLane="best" from="1175570870" to="824899553"/>
    <trip id="tru159" type="tru_truck" depart="159.00" departLane="best" from="1175566535" to="1175575157"/>
    <trip id="tru160" type="tru_truck" depart="160.00" departLane="best" from="1175564098" to="1175575000"/>
    <trip id="tru161" type="tru_truck" depart="161.00" departLane="best" from="1175569785" to="1175565864"/>
    <trip id="tru162" type="tru_truck" depart="162.00" departLane="best" from="1175569110" to="1175563898"/>
    <trip id="tru163" type="tru_truck" depart="163.00" departLane="best" from="1175575593" to="1175574321"/>
    <trip id="tru164" type="tru_truck" depart="164.00" departLane="best" from="1175566966" to="1175572545"/>
    <trip id="tru165" type="tru_truck" depart="165.00" departLane="best" from="1175565481" to="1175575446"/>
    <trip id="tru166" type="tru_truck" depart="166.00" departLane="best" from="1175573079" to="1175572085"/>
    <trip id="tru167" type="tru_truck" depart="167.00" departLane="best" from="1175571281" to="1175571694"/>
    <trip id="tru168" type="tru_truck" depart="168.00" departLane="best" from="1175575761" to="1002981958"/>
    <trip id="tru169" type="tru_truck" depart="169.00" departLane="best" from="1175567853" to="1175564053"/>
    <trip id="tru170" type="tru_truck" depart="170.00" departLane="best" from="1175565807" to="1175574513"/>
    <trip id="tru171" type="tru_truck" depart="171.00" departLane="best" from="1175564780" to="1175575012"/>
    <trip id="tru172" type="tru_truck" depart="172.00" departLane="best" from="79716321" to="79537471"/>
    <trip id="tru173" type="tru_truck" depart="173.00" departLane="best" from="1175573087" to="1175574219"/>
    <trip id="tru174" type="tru_truck" depart="174.00" departLane="best" departSpeed="max" from="-1001635755" to="1175565200"/>
    <trip id="tru175" type="tru_truck" depart="175.00" departLane="best" from="821221644" to="1175571748"/>
    <trip id="tru176" type="tru_truck" depart="176.00" departLane="best" from="1175562965" to="-79091862"/>
    <trip id="tru177" type="tru_truck" depart="177.00" departLane="best" from="1175564886" to="1175572969"/>
    <trip id="tru178" type="tru_truck" depart="178.00" departLane="best" from="1175575989" to="1175568344"/>
    <trip id="tru179" type="tru_truck" depart="179.00" departLane="best" from="1175565576" to="1175566481"/>
    <trip id="tru180" type="tru_truck" depart="180.00" departLane="best" from="1175568730" to="1175566707"/>
    <trip id="tru181" type="tru_truck" depart="181.00" departLane="best" from="-78335810" to="1175575924"/>
    <trip id="tru182" type="tru_truck" depart="182.00" departLane="best" from="1175569684" to="1175572793"/>
    <trip id="tru183" type="tru_truck" depart="183.00" departLane="best" departSpeed="max" from="1175566161" to="1175563100"/>
    <trip id="tru184" type="tru_truck" depart="184.00" departLane="best" from="1175575864" to="571390432"/>
    <trip id="tru185" type="tru_truck" depart="185.00" departLane="best" from="1175564772" to="247557146"/>
    <trip id="tru186" type="tru_truck" depart="186.00" departLane="best" from="1175567620" to="1175571695"/>
    <trip id="tru187" type="tru_truck" depart="187.00" departLane="best" from="1175566274" to="1175563912"/>
    <trip id="tru188" type="tru_truck" depart="188.00" departLane="best" from="1175572703" to="1175569608"/>
    <trip id="tru189" type="tru_truck" depart="189.00" departLane="best" departSpeed="max" from="-1002600593" to="1175570220"/>
    <trip id="tru190" type="tru_truck" depart="190.00" departLane="best" from="821906528" to="1175564135"/>
    <trip id="tru191" type="tru_truck" depart="191.00" departLane="best" from="1175562964" to="824651479"/>
    <trip id="tru192" type="tru_truck" depart="192.00" departLane="best" from="1175564391" to="1175570881"/>
    <trip id="tru193" type="tru_truck" depart="193.00" departLane="best" from="1175568465" to="1175573379"/>
    <trip id="tru194" type="tru_truck" depart="194.00" departLane="best" from="78335908" to="1175566637"/>
    <trip id="tru195" type="tru_truck" depart="195.00" departLane="best" from="1175565000" to="1175571676"/>
    <trip id="tru196" type="tru_truck" depart="196.00" departLane="best" from="1175566882" to="1175576215"/>
    <trip id="tru197" type="tru_truck" depart="197.00" departLane="best" from="1175573532" to="1175574794"/>
    <trip id="tru198" type="tru_truck" depart="198.00" departLane="best" from="1175563234" to="1175575846"/>
    <trip id="tru199" type="tru_truck" depart="199.00" departLane="best" from="-824646407" to="1175568583"/>
    <trip id="tru200" type="tru_truck" depart="200.00" departLane="best" from="1175567685" to="78046828"/>
    <trip id="tru201" type="tru_truck" depart="201.00" departLane="best" from="1175576789" to="1175574281"/>
    <trip id="tru202" type="tru_truck" depart="202.00" departLane="best" from="1175569664" to="-1002495705"/>
    <trip id="tru203" type="tru_truck" depart="203.00" departLane="best" from="1175571155" to="1175574230"/>
    <trip id="tru204" type="tru_truck" depart="204.00" departLane="best" from="1175565074" to="1175570812"/>
    <trip id="tru205" type="tru_truck" depart="205.00" departLane="best" from="1175569396" to="1175574737"/>
    <trip id="tru206" type="tru_truck" depart="206.00" departLane="best" from="1175563424" to="1175571215"/>
    <trip id="tru207" type="tru_truck" depart="207.00" departLane="best" from="1175574240" to="1175564476"/>
    <trip id="tru208" type="tru_truck" depart="208.00" departLane="best" from="1175570162" to="1175574473"/>
    <trip id="tru209" type="tru_truck" depart="209.00" departLane="best" from="1175567060" to="824669576"/>
    <trip id="tru210" type="tru_truck" depart="210.00" departLane="best" from="-77669773" to="1005479960"/>
    <trip id="tru211" type="tru_truck" depart="211.00" departLane="best" from="1175565263" to="1175569520"/>
    <trip id="tru212" type="tru_truck" depart="212.00" departLane="best" from="1175572527" to="1175563262"/>
    <trip id="tru213" type="tru_truck" depart="213.00" departLane="best" from="1175574287" to="-79091913"/>
    <trip id="tru214" type="tru_truck" depart="214.00" departLane="best" from="91859792" to="-824366352"/>
    <trip id="tru215" type="tru_truck" depart="215.00" departLane="best" from="1175571826" to="1175564168"/>
    <trip id="tru216" type="tru_truck" depart="216.00" departLane="best" from="1175574070" to="1175570871"/>
    <trip id="tru217" type="tru_truck" depart="217.00" departLane="best" from="1175567741" to="1175573845"/>
    <trip id="tru218" type="tru_truck" depart="218.00" departLane="best" from="108333887" to="1175575908"/>
    <trip id="tru219" type="tru_truck" depart="219.00" departLane="best" from="627284443" to="1175571506"/>
    <trip id="tru220" type="tru_truck" depart="220.00" departLane="best" from="1175566021" to="1175575956"/>
    <trip id="tru221" type="tru_truck" depart="221.00" departLane="best" departSpeed="max" from="1175576047" to="1175572973"/>
    <trip id="tru222" type="tru_truck" depart="222.00" departLane="best" from="1175565202" to="1175569645"/>
    <trip id="tru223" type="tru_truck" depart="223.00" departLane="best" departSpeed="max" from="-435252695" to="1175565816"/>
    <trip id="tru224" type="tru_truck" depart="224.00" departLane="best" from="1175570857" to="1175575160"/>
    <trip id="tru225" type="tru_truck" depart="225.00" departLane="best" from="1175571748" to="1175570684"/>
    <trip id="tru226" type="tru_truck" depart="226.00" departLane="best" from="1175568840" to="1175568067"/>
    <trip id="tru227" type="tru_truck" depart="227.00" departLane="best" from="1175576020" to="-79535739"/>
    <trip id="tru228" type="tru_truck" depart="228.00" departLane="best" from="1175571615" to="1175573457"/>
    <trip id="tru229" type="tru_truck" depart="229.00" departLane="best" from="1175562902" to="1175563510"/>
    <trip id="tru230" type="tru_truck" depart="230.00" departLane="best" from="1175574297" to="1175567736"/>
    <trip id="tru231" type="tru_truck" depart="231.00" departLane="best" from="1175572248" to="1175576114"/>
    <trip id="tru232" type="tru_truck" depart="232.00" departLane="best" from="1175573438" to="107286395"/>
    <trip id="tru233" type="tru_truck" depart="233.00" departLane="best" from="1175572050" to="1175563694"/>
    <trip id="tru234" type="tru_truck" depart="234.00" departLane="best" from="1175573458" to="1175563957"/>
    <trip id="tru235" type="tru_truck" depart="235.00" departLane="best" from="1175569119" to="1175563544"/>
    <trip id="tru236" type="tru_truck" depart="236.00" departLane="best" from="1175571373" to="1175573382"/>
    <trip id="tru237" type="tru_truck" depart="237.00" departLane="best" from="1175576024" to="1175571261"/>
    <trip id="tru238" type="tru_truck" depart="238.00" departLane="best" from="1175564352" to="1175568455"/>
    <trip id="tru239" type="tru_truck" depart="239.00" departLane="best" from="1175563288" to="1175571970"/>
    <trip id="tru240" type="tru_truck" depart="240.00" departLane="best" from="1175572807" to="1175573738"/>
    <trip id="tru241" type="tru_truck" depart="241.00" departLane="best" from="1175565379" to="1175568065"/>
    <trip id="tru242" type="tru_truck" depart="242.00" departLane="best" from="1175567760" to="1175566307"/>
    <trip id="tru243" type="tru_truck" depart="243.00" departLane="best" departSpeed="max" from="1003839063" to="1175564521"/>
    <trip id="tru244" type="tru_truck" depart="244.00" departLane="best" from="1175567673" to="-247535996"/>
    <trip id="tru245" type="tru_truck" depart="245.00" departLane="best" from="-821645302" to="1175572226"/>
    <trip id="tru246" type="tru_truck" depart="246.00" departLane="best" from="1175565440" to="1175571913"/>
    <trip id="tru247" type="tru_truck" depart="247.00" departLane="best" from="1175563177" to="-821911212"/>
    <trip id="tru248" type="tru_truck" depart="248.00" departLane="best" departSpeed="max" from="-821981425" to="1175571429"/>
    <trip id="tru249" type="tru_truck" depart="249.00" departLane="best" from="1175568158" to="824646401"/>
    <trip id="tru250" type="tru_truck" depart="250.00" departLane="best" from="1175567422" to="1175564552"/>
    <trip id="tru251" type="tru_truck" depart="251.00" departLane="best" from="1175575422" to="1175576475"/>
    <trip id="tru252" type="tru_truck" depart="252.00" departLane="best" from="1175570545" to="1175564597"/>
    <trip id="tru253" type="tru_truck" depart="253.00" departLane="best" from="1175565440" to="79091658"/>
    <trip id="tru254" type="tru_truck" depart="254.00" departLane="best" from="1175570337" to="1175575398"/>
    <trip id="tru255" type="tru_truck" depart="255.00" departLane="best" from="79537326" to="1175576082"/>