<?xml version="1.0" encoding="UTF-8"?>

<!-- generated on 2025-12-17 16:03:44.632072 by randomTrips.py UNKNOWN
<configuration>
    <net-file value="dense.net.xml.gz"/>
    <output-trip-file value="dense.pedestrian.trips.xml"/>
    <route-file value="dense.pedestrian.rou.xml"/>
    <pedestrians value="True"/>
    <prefix value="ped"/>
    <vehicle-class value="pedestrian"/>
    <via-edge-types value="highway.motorway,highway.motorway_link,highway.trunk_link,highway.primary_link,highway.secondary_link,highway.tertiary_link"/>
    <random value="True"/>
    <remove-loops value="True"/>
    <validate value="True"/>
    <verbose value="True"/>
    <period value="0.36"/>
    <duarouter-routing-threads value="3"/>
</configuration>
-->

<!-- generated on 2025-12-17 16:03:42 by Eclipse SUMO duarouter Version 1.18.0
<configuration xmlns:xsi="http://www.w3.org/2001/XMLSchema-instance" xsi:noNamespaceSchemaLocation="http://sumo.dlr.de/xsd/duarouterConfiguration.xsd">

    <input>
        <net-file value="dense.net.xml.gz"/>
        <route-files value="dense.pedestrian.trips.xml"/>
    </input>

    <output>
        <output-file value="dense.pedestrian.trips.xml.tmp"/>
        <alternatives-output value="NUL"/>
        <write-trips value="true"/>
    </output>

    <processing>
        <remove-loops value="true"/>
        <routing-threads value="3"/>
    </processing>

    <time>
        <begin value="0.0"/>
        <end value="3600.0"/>
    </time>

    <report>
        <verbose value="true"/>
        <ignore-errors value="true"/>
        <no-step-log value="true"/>
    </report>

</configuration>
-->

<routes xmlns:xsi="http://www.w3.org/2001/XMLSchema-instance" xsi:noNamespaceSchemaLocation="http://sumo.dlr.de/xsd/routes_file.xsd">
    <vType id="ped_pedestrian" vClass="pedestrian"/>
    <person id="ped0" type="ped_pedestrian" depart="0.00">
        <personTrip from="1279772086" to="1279772086" walkFactor="0.75"/>
    </person>
    <person id="ped1" type="ped_pedestrian" depart="0.36">
        <personTrip from="1279771480" to="1279771749" walkFactor="0.75"/>
    </person>
    <person id="ped2" type="ped_pedestrian" depart="0.72">
        <personTrip from="1279771810" to="1279771546" walkFactor="0.75"/>
    </person>
    <person id="ped3" type="ped_pedestrian" depart="1.08">
        <personTrip from="1279771330" to="1279771741" walkFactor="0.75"/>
    </person>
    <person id="ped4" type="ped_pedestrian" depart="1.44">
        <personTrip from="218611618" to="1279770955" walkFactor="0.75"/>
    </person>
    <person id="ped5" type="ped_pedestrian" depart="1.80">
        <personTrip from="1279771839" to="1279770891" walkFactor="0.75"/>
    </person>
    <person id="ped6" type="ped_pedestrian" depart="2.16">
        <personTrip from="1279771904" to="1279770996" walkFactor="0.75"/>
    </person>
    <person id="ped7" type="ped_pedestrian" depart="2.52">
        <personTrip from="1279771150" to="1279771301" walkFactor="0.75"/>
    </person>
    <person id="ped8" type="ped_pedestrian" depart="2.88">
        <personTrip from="218148123" to="218114985" walkFactor="0.75"/>
    </person>
    <person id="ped9" type="ped_pedestrian" depart="3.24">
        <personTrip from="1279771099" to="218025323" walkFactor="0.75"/>
    </person>
    <person id="ped10" type="ped_pedestrian" depart="3.60">
        <personTrip from="1279770384" to="1279771986" walkFactor="0.75"/>
    </person>
    <person id="ped11" type="ped_pedestrian" depart="3.96">
        <personTrip from="1279770782" to="1279771125" walkFactor="0.75"/>
    </person>
    <person id="ped12" type="ped_pedestrian" depart="4.32">
        <personTrip from="1279771284" to="1279772200" walkFactor="0.75"/>
    </person>
    <person id="ped13" type="ped_pedestrian" depart="4.68">
        <personTrip from="218175283" to="1279771848" walkFactor="0.75"/>
    </person>
    <person id="ped14" type="ped_pedestrian" depart="5.04">
        <personTrip from="1279771166" to="1279770427" walkFactor="0.75"/>
    </person>
    <person id="ped15" type="ped_pedestrian" depart="5.40">
        <personTrip from="-13394541" to="1279770481" walkFactor="0.75"/>
    </person>
    <person id="ped16" type="ped_pedestrian" depart="5.76">
        <personTrip from="1279771468" to="1279772108" walkFactor="0.75"/>
    </person>
    <person id="ped17" type="ped_pedestrian" depart="6.12">
        <personTrip from="1279770768" to="1279771996" walkFactor="0.75"/>
    </person>
    <person id="ped18" type="ped_pedestrian" depart="6.48">
        <personTrip from="218114996" to="1279771781" walkFactor="0.75"/>
    </person>
    <person id="ped19" type="ped_pedestrian" depart="6.84">
        <personTrip from="218125985" to="1279771886" walkFactor="0.75"/>
    </person>
    <person id="ped20" type="ped_pedestrian" depart="7.20">
        <personTrip from="1279772142" to="-1279770359" walkFactor="0.75"/>
    </person>
    <person id="ped21" type="ped_pedestrian" depart="7.56">
        <personTrip from="218176900" to="1279771050" walkFactor="0.75"/>
    </person>
    <person id="ped22" type="ped_pedestrian" depart="7.92">
        <personTrip from="1279771889" to="218831308" walkFactor="0.75"/>
    </person>
    <person id="ped23" type="ped_pedestrian" depart="8.28">
        <personTrip from="1279770594" to="1279770621" walkFactor="0.75"/>
    </person>
    <person id="ped24" type="ped_pedestrian" depart="8.64">
        <personTrip from="1279771485" to="1279770412" walkFactor="0.75"/>
    </person>
    <person id="ped25" type="ped_pedestrian" depart="9.00">
        <personTrip from="218834123" to="1279771221" walkFactor="0.75"/>
    </person>
    <person id="ped26" type="ped_pedestrian" depart="9.36">
        <personTrip from="1279772203" to="218175286" walkFactor="0.75"/>
    </person>
    <person id="ped27" type="ped_pedestrian" depart="9.72">
        <personTrip from="1279771323" to="1279771609" walkFactor="0.75"/>
    </person>
    <person id="ped28" type="ped_pedestrian" depart="10.08">
        <personTrip from="218025293" to="1279771703" walkFactor="0.75"/>
    </person>
    <person id="ped29" type="ped_pedestrian" depart="10.44">
        <personTrip from="1279770523" to="1279771112" walkFactor="0.75"/>
    </person>
    <person id="ped30" type="ped_pedestrian" depart="10.80">
        <personTrip from="1279770758" to="1279771005" walkFactor="0.75"/>
    </person>
    <person id="ped31" type="ped_pedestrian" depart="11.16">
        <personTrip from="1279772060" to="1279771797" walkFactor="0.75"/>
    </person>
    <person id="ped32" type="ped_pedestrian" depart="11.52">
        <personTrip from="1279771868" to="1279770651" walkFactor="0.75"/>
    </person>
    <person id="ped33" type="ped_pedestrian" depart="11.88">
        <personTrip from="1279771311" to="218611616" walkFactor="0.75"/>
    </person>
    <person id="ped34" type="ped_pedestrian" depart="12.24">
        <personTrip from="1279772150" to="1279771731" walkFactor="0.75"/>
    </person>
    <person id="ped35" type="ped_pedestrian" depart="12.60">
        <personTrip from="1279771067" to="1279772054" walkFactor="0.75"/>
    </person>
    <person id="ped36" type="ped_pedestrian" depart="12.96">
        <personTrip from="1279770674" to="218602424" walkFactor="0.75"/>
    </person>
    <person id="ped37" type="ped_pedestrian" depart="13.32">
        <personTrip from="1279771194" to="730169452" walkFactor="0.75"/>
    </person>
    <person id="ped38" type="ped_pedestrian" depart="13.68">
        <personTrip from="1279770488" to="1279772074" walkFactor="0.75"/>
    </person>
    <person id="ped39" type="ped_pedestrian" depart="14.04">
        <personTrip from="1279770464" to="1279770458" walkFactor="0.75"/>
    </person>
    <person id="ped40" type="ped_pedestrian" depart="14.40">
        <personTrip from="1279771155" to="218118871" walkFactor="0.75"/>
    </person>
    <person id="ped41" type="ped_pedestrian" depart="14.76">
        <personTrip from="1279771024" to="1268423540" walkFactor="0.75"/>
    </person>
    <person id="ped42" type="ped_pedestrian" depart="15.12">
        <personTrip from="1279770517" to="1279771384" walkFactor="0.75"/>
    </person>
    <person id="ped43" type="ped_pedestrian" depart="15.48">
        <personTrip from="1279771383" to="218175277" walkFactor="0.75"/>
    </person>
    <person id="ped44" type="ped_pedestrian" depart="15.84">
        <personTrip from="1279772191" to="1279770675" walkFactor="0.75"/>
    </person>
    <person id="ped45" type="ped_pedestrian" depart="16.20">
        <personTrip from="1279771001" to="1279771553" walkFactor="0.75"/>
    </person>
    <person id="ped46" type="ped_pedestrian" depart="16.56">
        <personTrip from="218830902" to="1279770948" walkFactor="0.75"/>
    </person>
    <person id="ped47" type="ped_pedestrian" depart="16.92">
        <personTrip from="1279772011" to="1279771506" walkFactor="0.75"/>
    </person>
    <person id="ped48" type="ped_pedestrian" depart="17.28">
        <personTrip from="1279772024" to="218834128" walkFactor="0.75"/>
    </person>
    <person id="ped49" type="ped_pedestrian" depart="17.64">
        <personTrip from="1279770704" to="218119457" walkFactor="0.75"/>
    </person>
    <person id="ped50" type="ped_pedestrian" depart="18.00">
        <personTrip from="1279772109" to="1279771075" walkFactor="0.75"/>
    </person>
    <person id="ped51" type="ped_pedestrian" depart="18.36">
        <personTrip from="218604146" to="1279771236" walkFactor="0.75"/>
    </person>
    <person id="ped52" type="ped_pedestrian" depart="18.72">
        <personTrip from="1279771950" to="1279770363" walkFactor="0.75"/>
    </person>
    <person id="ped53" type="ped_pedestrian" depart="19.08">
        <personTrip from="1279770452" to="1279771313" walkFactor="0.75"/>
    </person>
    <person id="ped54" type="ped_pedestrian" depart="19.44">
        <personTrip from="1279771380" to="1279770594" walkFactor="0.75"/>
    </person>
    <person id="ped55" type="ped_pedestrian" depart="19.80">
        <personTrip from="1279771510" to="217480264" walkFactor="0.75"/>
    </person>
    <person id="ped56" type="ped_pedestrian" depart="20.16">
        <personTrip from="1279770936" to="1279772070" walkFactor="0.75"/>
    </person>
    <person id="ped57" type="ped_pedestrian" depart="20.52">
        <personTrip from="1279771103" to="1279771577" walkFactor="0.75"/>
    </person>
    <person id="ped58" type="ped_pedestrian" depart="20.88">
        <personTrip from="1279770960" to="1279772000" walkFactor="0.75"/>
    </person>
    <person id="ped59" type="ped_pedestrian" depart="21.24">
        <personTrip from="218554720" to="1279771414" walkFactor="0.75"/>
    </person>
    <person id="ped60" type="ped_pedestrian" depart="21.60">
        <personTrip from="1279771621" to="218126695" walkFactor="0.75"/>
    </person>
    <person id="ped61" type="ped_pedestrian" depart="21.96">
        <personTrip from="217103520" to="1279770546" walkFactor="0.75"/>
    </person>
    <person id="ped62" type="ped_pedestrian" depart="22.32">
        <personTrip from="1279771071" to="1279770917" walkFactor="0.75"/>
    </person>
    <person id="ped63" type="ped_pedestrian" depart="22.68">
        <personTrip from="1279771964" to="218830945" walkFactor="0.75"/>
    </person>
    <person id="ped64" type="ped_pedestrian" depart="23.04">
        <personTrip from="1279770873" to="1279771207" walkFactor="0.75"/>
    </person>
    <person id="ped65" type="ped_pedestrian" depart="23.40">
        <personTrip from="218603045" to="1279770577" walkFactor="0.75"/>
    </person>
    <person id="ped66" type="ped_pedestrian" depart="23.76">
        <personTrip from="1279771074" to="1279771551" walkFactor="0.75"/>
    </person>
    <person id="ped67" type="ped_pedestrian" depart="24.12">
        <personTrip from="1279771386" to="-894491752" walkFactor="0.75"/>
    </person>
    <person id="ped68" type="ped_pedestrian" depart="24.48">
        <personTrip from="1279770536" to="1279771568" walkFactor="0.75"/>
    </person>
    <person id="ped69" type="ped_pedestrian" depart="24.84">
        <personTrip from="1279770843" to="1279770774" walkFactor="0.75"/>
    </person>
    <person id="ped70" type="ped_pedestrian" depart="25.20">
        <personTrip from="1279771860" to="1279771381" walkFactor="0.75"/>
    </person>
    <person id="ped71" type="ped_pedestrian" depart="25.56">
        <personTrip from="218554688" to="1279770389" walkFactor="0.75"/>
    </person>
    <person id="ped72" type="ped_pedestrian" depart="25.92">
        <personTrip from="1279771203" to="1279771775" walkFactor="0.75"/>
    </person>
    <person id="ped73" type="ped_pedestrian" depart="26.28">
        <personTrip from="1279771207" to="218834164" walkFactor="0.75"/>
    </person>
    <person id="ped74" type="ped_pedestrian" depart="26.64">
        <personTrip from="1279771917" to="1279772198" walkFactor="0.75"/>
    </person>
    <person id="ped75" type="ped_pedestrian" depart="27.00">
        <personTrip from="1279771478" to="218554719" walkFactor="0.75"/>
    </person>
    <person id="ped76" type="ped_pedestrian" depart="27.36">
        <personTrip from="1279771963" to="1279771281" walkFactor="0.75"/>
    </person>
    <person id="ped77" type="ped_pedestrian" depart="27.72">
        <personTrip from="1279770763" to="1279770527" walkFactor="0.75"/>
    </person>
    <person id="ped78" type="ped_pedestrian" depart="28.08">
        <personTrip from="1279771169" to="1279771880" walkFactor="0.75"/>
    </person>
    <person id="ped79" type="ped_pedestrian" depart="28.44">
        <personTrip from="1279770500" to="1279770885" walkFactor="0.75"/>
    </person>
    <person id="ped80" type="ped_pedestrian" depart="28.80">
        <personTrip from="1279770998" to="1279771565" walkFactor="0.75"/>
    </person>
    <person id="ped81" type="ped_pedestrian" depart="29.16">
        <personTrip from="1279772007" to="217104383" walkFactor="0.75"/>
    </person>
    <person id="ped82" type="ped_pedestrian" depart="29.52">
        <personTrip from="217104353" to="1279771058" walkFactor="0.75"/>
    </person>
    <person id="ped83" type="ped_pedestrian" depart="29.88">
        <personTrip from="1279771232" to="1279771693" walkFactor="0.75"/>
    </person>
    <person id="ped84" type="ped_pedestrian" depart="30.24">
        <personTrip from="218602421" to="218176286" walkFactor="0.75"/>
    </person>
    <person id="ped85" type="ped_pedestrian" depart="30.60">
        <personTrip from="1279771158" to="218131184" walkFactor="0.75"/>
    </person>
    <person id="ped86" type="ped_pedestrian" depart="30.96">
        <personTrip from="1279770512" to="1279770366" walkFactor="0.75"/>
    </person>
    <person id="ped87" type="ped_pedestrian" depart="31.32">
        <personTrip from="1279770633" to="1279770710" walkFactor="0.75"/>
    </person>
    <person id="ped88" type="ped_pedestrian" depart="31.68">
        <personTrip from="1279771430" to="1279772166" walkFactor="0.75"/>
    </person>
    <person id="ped89" type="ped_pedestrian" depart="32.04">
        <personTrip from="218603025" to="1279771549" walkFactor="0.75"/>
    </person>
    <person id="ped90" type="ped_pedestrian" depart="32.40">
        <personTrip from="1279770990" to="1279771178" walkFactor="0.75"/>
    </person>
    <person id="ped91" type="ped_pedestrian" depart="32.76">
        <personTrip from="1279770494" to="1279770656" walkFactor="0.75"/>
    </person>
    <person id="ped92" type="ped_pedestrian" depart="33.12">
        <personTrip from="1279770914" to="1279771935" walkFactor="0.75"/>
    </person>
    <person id="ped93" type="ped_pedestrian" depart="33.48">
        <personTrip from="1279770916" to="1279771786" walkFactor="0.75"/>
    </person>
    <person id="ped94" type="ped_pedestrian" depart="33.84">
        <personTrip from="1279770502" to="1279770448" walkFactor="0.75"/>
    </person>
    <person id="ped95" type="ped_pedestrian" depart="34.20">
        <personTrip from="218126240" to="1279770484" walkFactor="0.75"/>
    </person>
    <person id="ped96" type="ped_pedestrian" depart="34.56">
        <personTrip from="1279770684" to="1279772082" walkFactor="0.75"/>
    </person>
    <person id="ped97" type="ped_pedestrian" depart="34.92">
        <personTrip from="1279771556" to="1279770492" walkFactor="0.75"/>
    </person>
    <person id="ped98" type="ped_pedestrian" depart="35.28">
        <personTrip from="1279772058" to="1279771038" walkFactor="0.75"/>
    </person>
    <person id="ped99" type="ped_pedestrian" depart="35.64">
        <personTrip from="1279772164" to="1279771741" walkFactor="0.75"/>
    </person>
    <person id="ped100" type="ped_pedestrian" depart="36.00">
        <personTrip from="1279770737" to="218122151" walkFactor="0.75"/>
    </person>
    <person id="ped101" type="ped_pedestrian" depart="36.36">
        <personTrip from="1279772047" to="218834158" walkFactor="0.75"/>
    </person>
    <person id="ped102" type="ped_pedestrian" depart="36.72">
        <personTrip from="1279765886" to="1279772066" walkFactor="0.75"/>
    </person>
    <person id="ped103" type="ped_pedestrian" depart="37.08">
        <personTrip from="1279771186" to="217104333" walkFactor="0.75"/>
    </person>
    <person id="ped104" type="ped_pedestrian" depart="37.44">
        <personTrip from="1279771817" to="1279771731" walkFactor="0.75"/>
    </person>
    <person id="ped105" type="ped_pedestrian" depart="37.80">
        <personTrip from="1279771071" to="1279772069" walkFactor="0.75"/>
    </person>
    <person id="ped106" type="ped_pedestrian" depart="38.16">
        <personTrip from="1279771431" to="1279771422" walkFactor="0.75"/>
    </person>
    <person id="ped107" type="ped_pedestrian" depart="38.52">
        <personTrip from="1279771219" to="1279771988" walkFactor="0.75"/>
    </person>
    <person id="ped108" type="ped_pedestrian" depart="38.88">
        <personTrip from="1279770645" to="218126692" walkFactor="0.75"/>
    </person>
    <person id="ped109" type="ped_pedestrian" depart="39.24">
        <personTrip from="1279771070" to="1279771473" walkFactor="0.75"/>
    </person>
    <person id="ped110" type="ped_pedestrian" depart="39.60">
        <personTrip from="1279771020" to="1279771916" walkFactor="0.75"/>
    </person>
    <person id="ped111" type="ped_pedestrian" depart="39.96">
        <personTrip from="1279771881" to="1279771985" walkFactor="0.75"/>
    </person>
    <person id="ped112" type="ped_pedestrian" depart="40.32">
        <personTrip from="1279771478" to="1279771004" walkFactor="0.75"/>
    </person>
    <person id="ped113" type="ped_pedestrian" depart="40.68">
        <personTrip from="1279771330" to="1279770398" walkFactor="0.75"/>
    </person>
    <person id="ped114" type="ped_pedestrian" depart="41.04">
        <personTrip from="1279771786" to="1279771077" walkFactor="0.75"/>
    </person>
    <person id="ped115" type="ped_pedestrian" depart="41.40">
        <personTrip from="218117800" to="1279770954" walkFactor="0.75"/>
    </person>
    <person id="ped116" type="ped_pedestrian" depart="41.76">
        <personTrip from="1279770976" to="218126699" walkFactor="0.75"/>
    </person>
    <person id="ped117" type="ped_pedestrian" depart="42.12">
        <personTrip from="217104341" to="1279770881" walkFactor="0.75"/>
    </person>
    <person id="ped118" type="ped_pedestrian" depart="42.48">
        <personTrip from="1279770700" to="1279772144" walkFactor="0.75"/>
    </person>
    <person id="ped119" type="ped_pedestrian" depart="42.84">
        <personTrip from="1279771051" to="1279771831" walkFactor="0.75"/>
    </person>
    <person id="ped120" type="ped_pedestrian" depart="43.20">
        <personTrip from="1279771124" to="1279771708" walkFactor="0.75"/>
    </person>
    <person id="ped121" type="ped_pedestrian" depart="43.56">
        <personTrip from="1279770704" to="1279772048" walkFactor="0.75"/>
    </person>
    <person id="ped122" type="ped_pedestrian" depart="43.92">
        <personTrip from="1279771858" to="1279771809" walkFactor="0.75"/>
    </person>
    <person id="ped123" type="ped_pedestrian" depart="44.28">
        <personTrip from="218604146" to="1279771145" walkFactor="0.75"/>
    </person>
    <person id="ped124" type="ped_pedestrian" depart="44.64">
        <personTrip from="1279770971" to="1279770864" walkFactor="0.75"/>
    </person>
    <person id="ped125" type="ped_pedestrian" depart="45.00">
        <personTrip from="218177078" to="218602423" walkFactor="0.75"/>
    </person>
    <person id="ped126" type="ped_pedestrian" depart="45.36">
        <personTrip from="1279770633" to="1279771995" walkFactor="0.75"/>
    </person>
    <person id="ped127" type="ped_pedestrian" depart="45.72">
        <personTrip from="1279772158" to="1279772176" walkFactor="0.75"/>
    </person>
    <person id="ped128" type="ped_pedestrian" depart="46.08">
        <personTrip from="1279772181" to="1279771696" walkFactor="0.75"/>
    </person>
    <person id="ped129" type="ped_pedestrian" depart="46.44">
        <personTrip from="1279771368" to="1279772144" walkFactor="0.75"/>
    </person>
    <person id="ped130" type="ped_pedestrian" depart="46.80">
        <personTrip from="218603048" to="1279770756" walkFactor="0.75"/>
    </person>
    <person id="ped131" type="ped_pedestrian" depart="47.16">
        <personTrip from="218175285" to="1279771914" walkFactor="0.75"/>
    </person>
    <person id="ped132" type="ped_pedestrian" depart="47.52">
        <personTrip from="1279770978" to="1279771746" walkFactor="0.75"/>
    </person>
    <person id="ped133" type="ped_pedestrian" depart="47.88">
        <personTrip from="1279771774" to="1279771784" walkFactor="0.75"/>
    </person>
    <person id="ped134" type="ped_pedestrian" depart="48.24">
        <personTrip from="218602403" to="1279770544" walkFactor="0.75"/>
    </person>
    <person id="ped135" type="ped_pedestrian" depart="48.60">
        <personTrip from="218401234" to="1279770732" walkFactor="0.75"/>
    </person>
    <person id="ped136" type="ped_pedestrian" depart="48.96">
        <personTrip from="218118884" to="1279770748" walkFactor="0.75"/>
    </person>
    <person id="ped137" type="ped_pedestrian" depart="49.32">
        <personTrip from="218118884" to="1279770577" walkFactor="0.75"/>
    </person>
    <person id="ped138" type="ped_pedestrian" depart="49.68">
        <personTrip from="1279771140" to="1279771610" walkFactor="0.75"/>
    </person>
    <person id="ped139" type="ped_pedestrian" depart="50.04">
        <personTrip from="1279770562" to="1279770959" walkFactor="0.75"/>
    </person>
    <person id="ped140" type="ped_pedestrian" depart="50.40">
        <personTrip from="1279771107" to="1279771872" walkFactor="0.75"/>
    </person>
    <person id="ped141" type="ped_pedestrian" depart="50.76">
        <personTrip from="217104375" to="1279771032" walkFactor="0.75"/>
    </person>
    <person id="ped142" type="ped_pedestrian" depart="51.12">
        <personTrip from="1279771244" to="1279772126" walkFactor="0.75"/>
    </person>
    <person id="ped143" type="ped_pedestrian" depart="51.48">
        <personTrip from="1279772035" to="1279771654" walkFactor="0.75"/>
    </person>
    <person id="ped144" type="ped_pedestrian" depart="51.84">
        <personTrip from="1279770498" to="1279771511" walkFactor="0.75"/>
    </person>
    <person id="ped145" type="ped_pedestrian" depart="52.20">
        <personTrip from="1279770992" to="1279770858" walkFactor="0.75"/>
    </person>
    <person id="ped146" type="ped_pedestrian" depart="52.56">
        <personTrip from="1279772040" to="218112239" walkFactor="0.75"/>
    </person>
    <person id="ped147" type="ped_pedestrian" depart="52.92">
        <personTrip from="218602421" to="843760493" walkFactor="0.75"/>
    </person>
    <person id="ped148" type="ped_pedestrian" depart="53.28">
        <personTrip from="1279770798" to="1279771911" walkFactor="0.75"/>
    </person>
    <person id="ped149" type="ped_pedestrian" depart="53.64">
        <personTrip from="1279771988" to="1279770757" walkFactor="0.75"/>
    </person>
    <person id="ped150" type="ped_pedestrian" depart="54.00">
        <personTrip from="1279770976" to="218175275" walkFactor="0.75"/>
    </person>
    <person id="ped151" type="ped_pedestrian" depart="54.36">
        <personTrip from="1279770431" to="1279770475" walkFactor="0.75"/>
    </person>
    <person id="ped152" type="ped_pedestrian" depart="54.72">
        <personTrip from="1279770875" to="218604146" walkFactor="0.75"/>
    </person>
    <person id="ped153" type="ped_pedestrian" depart="55.08">
        <personTrip from="1279771981" to="218603052" walkFactor="0.75"/>
    </person>
    <person id="ped154" type="ped_pedestrian" depart="55.44">
        <personTrip from="1279771072" to="1279771114" walkFactor="0.75"/>
    </person>
    <person id="ped155" type="ped_pedestrian" depart="55.80">
        <personTrip from="1279771509" to="970278169" walkFactor="0.75"/>
    </person>
    <person id="ped156" type="ped_pedestrian" depart="56.16">
        <personTrip from="1279771047" to="-726086496" walkFactor="0.75"/>
    </person>
    <person id="ped157" type="ped_pedestrian" depart="56.52">
        <personTrip from="1279771124" to="1279770735" walkFactor="0.75"/>
    </person>
    <person id="ped158" type="ped_pedestrian" depart="56.88">
        <personTrip from="1279770605" to="1279771114" walkFactor="0.75"/>
    </person>
    <person id="ped159" type="ped_pedestrian" depart="57.24">
        <personTrip from="1279770862" to="1279772180" walkFactor="0.75"/>
    </person>
    <person id="ped160" type="ped_pedestrian" depart="57.60">
        <personTrip from="218830899" to="1279771392" walkFactor="0.75"/>
    </person>
    <person id="ped161" type="ped_pedestrian" depart="57.96">
        <personTrip from="1279770469" to="1279770530" walkFactor="0.75"/>
    </person>
    <person id="ped162" type="ped_pedestrian" depart="58.32">
        <personTrip from="1279770903" to="1279771106" walkFactor="0.75"/>
    </person>
    <person id="ped163" type="ped_pedestrian" depart="58.68">
        <personTrip from="1279771228" to="1279770530" walkFactor="0.75"/>
    </person>
    <person id="ped164" type="ped_pedestrian" depart="59.04">
        <personTrip from="1279770614" to="1279770751" walkFactor="0.75"/>
    </person>
    <person id="ped165" type="ped_pedestrian" depart="59.40">
        <personTrip from="1279770763" to="217603003" walkFactor="0.75"/>
    </person>
    <person id="ped166" type="ped_pedestrian" depart="59.76">
        <personTrip from="218611614" to="1279771285" walkFactor="0.75"/>
    </person>
    <person id="ped167" type="ped_pedestrian" depart="60.12">
        <personTrip from="217442831" to="1279770813" walkFactor="0.75"/>
    </person>
    <person id="ped168" type="ped_pedestrian" depart="60.48">
        <personTrip from="1279771634" to="1279772065" walkFactor="0.75"/>
    </person>
    <person id="ped169" type="ped_pedestrian" depart="60.84">
        <personTrip from="1279771743" to="218175275" walkFactor="0.75"/>
    </person>
    <person id="ped170" type="ped_pedestrian" depart="61.20">
        <personTrip from="1279771167" to="218114986" walkFactor="0.75"/>
    </person>
    <person id="ped171" type="ped_pedestrian" depart="61.56">
        <personTrip from="218177071" to="1279771246" walkFactor="0.75"/>
    </person>
    <person id="ped172" type="ped_pedestrian" depart="61.92">
        <personTrip from="1279770559" to="218554706" walkFactor="0.75"/>
    </person>
    <person id="ped173" type="ped_pedestrian" depart="62.28">
        <personTrip from="1279772089" to="1279771200" walkFactor="0.75"/>
    </person>
    <person id="ped174" type="ped_pedestrian" depart="62.64">
        <personTrip from="1279771676" to="1279770607" walkFactor="0.75"/>
    </person>
    <person id="ped175" type="ped_pedestrian" depart="63.00">
        <personTrip from="1279772209" to="1279771324" walkFactor="0.75"/>
    </person>
    <person id="ped176" type="ped_pedestrian" depart="63.36">
        <personTrip from="1279771762" to="1279770607" walkFactor="0.75"/>
    </person>
    <person id="ped177" type="ped_pedestrian" depart="63.72">
        <personTrip from="1279771917" to="1279771715" walkFactor="0.75"/>
    </person>
    <person id="ped178" type="ped_pedestrian" depart="64.08">
        <personTrip from="1279771937" to="218604146" walkFactor="0.75"/>
    </person>
    <person id="ped179" type="ped_pedestrian" depart="64.44">
        <personTrip from="1279771710" to="1279772204" walkFactor="0.75"/>
    </person>
    <person id="ped180" type="ped_pedestrian" depart="64.80">
        <personTrip from="218114993" to="1279770844" walkFactor="0.75"/>
    </person>
    <person id="ped181" type="ped_pedestrian" depart="65.16">
        <personTrip from="1279772034" to="1279771295" walkFactor="0.75"/>
    </person>
    <person id="ped182" type="ped_pedestrian" depart="65.52">
        <personTrip from="1279770690" to="218604146" walkFactor="0.75"/>
    </person>
    <person id="ped183" type="ped_pedestrian" depart="65.88">
        <personTrip from="1279770798" to="218830934" walkFactor="0.75"/>
    </person>
    <person id="ped184" type="ped_pedestrian" depart="66.24">
        <personTrip from="218834123" to="1279771152" walkFactor="0.75"/>
    </person>
    <person id="ped185" type="ped_pedestrian" depart="66.60">
        <personTrip from="1279770558" to="1279771643" walkFactor="0.75"/>
    </person>
    <person id="ped186" type="ped_pedestrian" depart="66.96">
        <personTrip from="970278169" to="1279771080" walkFactor="0.75"/>
    </person>
    <person id="ped187" type="ped_pedestrian" depart="67.32">
        <personTrip from="-843760488" to="1279772152" walkFactor="0.75"/>
    </person>
    <person id="ped188" type="ped_pedestrian" depart="67.68">
        <personTrip from="1279770412" to="1279771252" walkFactor="0.75"/>
    </person>