<?xml version="1.0" encoding="UTF-8"?>

<!-- generated on 2024-11-21 15:01:59.715221 by randomTrips.py UNKNOWN
<configuration>
    <net-file value="dense.net.xml.gz"/>
    <output-trip-file value="dense.pedestrian.trips.xml"/>
    <route-file value="dense.pedestrian.rou.xml"/>
    <pedestrians value="True"/>
    <prefix value="ped"/>
    <vehicle-class value="pedestrian"/>
    <via-edge-types value="highway.motorway,highway.motorway_link,highway.trunk_link,highway.primary_link,highway.secondary_link,highway.tertiary_link"/>
    <random value="True"/>
    <remove-loops value="True"/>
    <validate value="True"/>
    <verbose value="True"/>
    <end value="30.0"/>
    <period value="0.006"/>
    <duarouter-routing-threads value="3"/>
</configuration>
-->

<!-- generated on 2024-11-21 15:01:58 by Eclipse SUMO duarouter Version v1_18_0+0023-ef591d47046
<configuration xmlns:xsi="http://www.w3.org/2001/XMLSchema-instance" xsi:noNamespaceSchemaLocation="http://sumo.dlr.de/xsd/duarouterConfiguration.xsd">

    <input>
        <net-file value="dense.net.xml.gz"/>
        <route-files value="dense.pedestrian.trips.xml"/>
    </input>

    <output>
        <output-file value="dense.pedestrian.rou.xml"/>
        <alternatives-output value="NUL"/>
    </output>

    <processing>
        <remove-loops value="true"/>
        <routing-threads value="3"/>
    </processing>

    <time>
        <begin value="0.0"/>
        <end value="30.0"/>
    </time>

    <report>
        <verbose value="true"/>
        <ignore-errors value="true"/>
        <no-step-log value="true"/>
    </report>

</configuration>
-->

<routes xmlns:xsi="http://www.w3.org/2001/XMLSchema-instance" xsi:noNamespaceSchemaLocation="http://sumo.dlr.de/xsd/routes_file.xsd">
    <vType id="ped_pedestrian" vClass="pedestrian"/>
    <person id="ped0" type="ped_pedestrian" depart="0.00">
        <walk edges="1266559336 1279771095 1279771094 1279771097 1279771098 1279771099 1279771100 1279771101 1279771053 1279771042 1279771090 1279770407 1279770389 1279771435 1279770775 217104357 1279770776 1279770592 1279770769 1279770768 1279770767 1279770765 1279770766 1279770761 1279770762 1279770781 1279770783 1279770784 1279770577 1279770576 1279770575 1279770574 1279770573 1279770669 1279770668 1279770670 1279770671 1279770680 1279770681 1279770719 1279770683"/>
    </person>
    <person id="ped1" type="ped_pedestrian" depart="0.01">
        <walk edges="218834147 1279772136 1279772129 1279772132 1279772134 1279772115 1279772106 1279772105 1279772104 218834119 1279772097 218555720 1279772169 1279772170 31549260 1279772158 1279770797 1279770798 1279770799 1279770800 1279770696 217104375 1279770795 1279770796 1279770771 217104371 1279770790 1279770791 1279770792 1279770787 217332653 1279770774 1279770775 1279771434 1279771833 1268416844 1279770535 1279770534 1279770533 218603049 1279771797 1279771836 1279771837 1279771838 1279771839 1279771840 1279771841 1279771842 1279771843 1279771636 1279771635 1279771634 1279771633 1279771624 1279771442 1279771443 1279771444 1279771568 1279771569 1279771570 1279771565 1279771447 1279771560 1279771559 1279771558 1279771557 1279771578 1279771579 1279771580 1279771581 1279771582 1279771548 1279771550 218176910 1279771539 1279771540 1279771541 1279771542 1279771526 1279771527 1279771545 1279771546 1279771547 1279771389 1279771506"/>
    </person>
    <person id="ped2" type="ped_pedestrian" depart="0.01">
        <walk edges="217452072 1279770843 1279770847 1279770849 1279770851 217452678 1279770563 1279770564 1279770565 1279770566 1279770567 1279770568 1279770569 1279770571 1279770572 1279770669 1279770760 1279770756 1279770666 1279770665 1279770664 1279770663 1279770662 1279770661 1279772161 1279772160 1279772159 1279772158 31549260 1279772170 1279771705 1279771706 1279771717 1279771935 1279771934 1279771893 1279771895 1279771932 1279771931 1279771930 1279771941 1279771942 1279771949 1279771950 1279771879 1279770500 1279770499 1279770498 1279770497 1279770496 1279770495 1279770494 1279770493 1279770492 1279771708 1279771709 1279771710 1279771987 1279771986 1279772004 1279771995"/>
    </person>
    <person id="ped3" type="ped_pedestrian" depart="0.02">
        <walk edges="218176292 1279770614 1279770615 1279771547 1279771546 1279771545 1279771527 1279771526 1279771542 1279771541 1279771540 1279771539 218176910 1279771550 1279771548 1279771582 1279771581 1279771580 1279771579 1279771578 1279771557 1279771558 1279771559 1279771560 1279771447 1279771565 1279771570 1279771569 1279771568 1279771444 1279771443 1279771442 1279771624 1279771633 1279771634 1279771635 1279771636 1279771843 1279771842 1279771841 1279771840 1279771839 1279771838 1279771837 1279771836 1279771797 218603049 1279770533 1279770534 1279770535 1268416844 1279771833 1279771434 1279771007 1279770983 218110530 1279770981 1279770980 1279770985 1279770978 1279770589 218110517 1279770965 218110518 1279770961 1279770960 1279770587 1279770586 1279770585 1279770558 1279770559 1279770570 1279770578 1279770579 1279770580 1279770581 1279770582 1279770583 1279770584 1279770560 1279770561 1279770562 217452678 1279770851 1279770849 1279770847 1279770843 1279770842 1279770841 1279770865 1279770866 1279770867 1279770556 218115371"/>
    </person>
    <person id="ped4" type="ped_pedestrian" depart="0.02">
        <walk edges="1279771918 1279770495 1279770496 1279770497 1279770498 1279770499 1279770500 1279771879 1279771950 1279771949 1279771942 1279771941 1279771930 1279771931 1279771932 1279771895 1279771893 1279771934 1279771935 1279771717 1279771706 1279771705 1279772170 31549260 1279772158 1279772159 1279772160 1279772161 1279770661 1279770662 1279770663 1279770664 1279770665 1279770666 1279770756 1279770760 1279770669 1279770572 1279770571 1279770569 1279770568 1279770567 1279770566 217104341 1279770731 1279770726 1279770727 1279770728 1279770746 1279770745 1279770744 1279770743 1279770742 217451344 1279770822"/>
    </person>
    <person id="ped5" type="ped_pedestrian" depart="0.03">
        <walk edges="218601604 1279770436 1279771424 1279771751 1279771750 1279771743 1279771744 1279771745 218602403 1266552019 1279771761 1279770597 218603027 1279771792 1279771791 1279771790 1279771789 218603029 1279771802 1279771803 1279771804 1279771807"/>
    </person>
    <person id="ped6" type="ped_pedestrian" depart="0.04">
        <walk edges="1279770431 1279771419 1279770433 1279771396 218176271"/>
    </person>
    <person id="ped7" type="ped_pedestrian" depart="0.04">
        <walk edges="1279770465 1279770466 1279770460 1279772188 1279770458 1279770457 1279770442 1279771052 1279771292 1279771291 1279771290 1279771289 1279771300 1279771299 1279771298 1279771297 1279771307 1279771306 1279771304 1279771303 1279771270 1279771269 1279771281 1279771280 1279771279 1279771278 1279771277 1279771328 1279771318 218130410"/>
    </person>
    <person id="ped8" type="ped_pedestrian" depart="0.05">
        <walk edges="1279770842 1279770843 1279770847 1279770849 1279770851 217452678 1279770562 1279770561 1279770560 1279770584 1279770583 1279770582 1279770581 1279770580 1279770579 1279770578 1279770570 1279770559 1279770558 1279770585 1279770586 1279770587 1279770960 1279770961 218110518 1279770965 218110517 1279770589 1279770978 1279770985 1279770980 1279770981 218110530 1279770983 1279771007 1279771434 1279771833 1268416844 1279770535 1279770534 1279770533 218603049 1279771797 1279771836 1279771837 1279771838 1279771839 1279771840 1279771841 1279771842 1279771843 1279771636 1279771635 1279771634 1279771633 1279771624 1279771442 1279771443 1279771444 1279771568 1279771569 1279771570 1279771565 1279771447 1279771560 1279771559 1279771558 1279771575 1279771555"/>
    </person>
    <person id="ped9" type="ped_pedestrian" depart="0.05">
        <walk edges="1279771559 1279771560 1279771447 1279771565 1279771570 1279771569 1279771568 1279771444 1279771443 1279771442 1279771624 1279771633 1279771634 1279771635 1279771636 1279771843 218604159"/>
    </person>
    <person id="ped10" type="ped_pedestrian" depart="0.06">
        <walk edges="1279770941 1279770940 1279770558 1279770585 1279770586 1279770587 1279770960 1279770961 218110518 1279770965 218110517 1279770589 1279770978 1279770985 1279770980 1279770981 218110530 1279770983 1279771007 1279771434 1279771833 1268416844 1279770535 1279770534 1279770533 218603049 1279771797 1279771798 1279771806 1279771805 1279771804 1279771803 1279771802 218603029 1279771789 1279771790 1279771791 1279771792 218603027 1279770598 1279770599 1279770600 1279770601 1279770602 1279770603 1279770604 1279770605 1279770606 1279771465 1279771464 1279771463 1279771462 1279771411 1279771421"/>
    </person>
    <person id="ped11" type="ped_pedestrian" depart="0.07">
        <walk edges="1279770657 1279770407 1279770658 1279770659 1279770616 1279771444 1279771568 1279771569 1279771570 1279771565 1279771447 1279771560 1279771559 1279771558 1279771575 1279771555 1279771577 1279771553 1279771406 1279771407 1279771408 218176916"/>
    </person>
    <person id="ped12" type="ped_pedestrian" depart="0.07">
        <walk edges="1279772185 1279770917 1268416852 1279770552 1279770553 1279770554 1279770555 1279770867 1279770866 1279770865 1279770841 1279770842 1279770843 1279770847 1279770849 1279770851 217452678 1279770563 1279770564 1279770565 1279770566 1279770567 1279770568 1279770569 1279770571 1279770572 1279770573 1279770574 1279770575 1279770576 1279770577 1279770784 1279770783 1279770781 1279770762 1279770761 1279770785 217104368"/>
    </person>
    <person id="ped13" type="ped_pedestrian" depart="0.08">
        <walk edges="218115371 1279770556 1279770867 1279770866 1279770865 1279770841 1279770842 1279770843 1279770847 1279770849 1279770851 217452678 1279770563 1279770564 1279770565 1279770566 1279770567 1279770568 1279770569 1279770571 1279770572 1279770573 1279770574 1279770575 1279770576 1279770577 1279770784 1279770783 1279770781 1279770762 217104366 1268423540"/>
    </person>
    <person id="ped14" type="ped_pedestrian" depart="0.08">
        <walk edges="1279772150 218834164 1279772147 1279772135 1279772134 1279772115 1279772106 1279772105 1279772104 218834119 1279772097 218555720 1279772169 1279772170 31549260 1279772158 1279770797 1279770798 1279770799 1279770800 1279770696 217104375 1279770795 1279770796 1279770771 217104371 1279770790 1279770791 217104373"/>
    </person>
    <person id="ped15" type="ped_pedestrian" depart="0.09">
        <walk edges="1279772159 1279772158 31549260 1279772170 1279771705 1279771706 1279771717 1279771935 1279771934 1279771893 1279771895 1279771896 1279771897 1279771898 1279771881 1279770509 1279770508 1279770507 1279771907"/>
    </person>
    <person id="ped16" type="ped_pedestrian" depart="0.10">
        <walk edges="1279771635 1279771634 1279771633 1279771624 1279771442 1279771443 1279771444 1279771568 1279771569 1279771570 1279771565 1279771447 1279771560 1279771559 1279771558 1279771557 1279771578 1279771579 1279771580 1279771581 1279771582 1279771548"/>
    </person>
    <person id="ped17" type="ped_pedestrian" depart="0.10">
        <walk edges="1279771770 1279771430 1279771431 1279771432 1279771433 1279771434 1279771007 1279770983 218110530 1279770981 1279770980 1279770985 1279770978 1279770589 218110517 1279770965 218110518 1279770961 1279770960 1279770587 1279770586 1279770585 1279770558 1279770559 1279770570 1279770578 1279770579 1279770580 1279770581"/>
    </person>
    <person id="ped18" type="ped_pedestrian" depart="0.11">
        <walk edges="1279772111 1279772107 1279772108 218834128 1279772113 1279772105 1279772104 218834119 1279772097 218555720 1279772169 1279772170 31549260 1279772158 1279770797 1279770798 1279770799 1279770800 1279770696 217104375 1279770795 1279770796 1279770771 217104371 1279770790 1279770791 1279770792 1279770787 217332653 1279770774 1279770775 1279771434 1279771833 1268416844 1279770535 1279770534 1279770533 218603049 1279771797 1279771798 1279771806 1279771805 1279771804 1279771809 1279771808 218604146 1279771679 218554705"/>
    </person>
    <person id="ped19" type="ped_pedestrian" depart="0.11">
        <walk edges="1279770839 1279770840 1279770841 1279770842 1279770843 1279770847 1279770849 1279770851 217452678 1279770562 1279770561 1279770560 1279770584 1279770583 1279770582 1279770581 1279770580 1279770579 1279770578 1279770570 1279770559 1279770558 1279770585 1279770586 1279770587 1279770960 1279770961 218110518 1279770965 218110517 1279770589 1279770978 1279770985 1279770980 1279770981 218110530 1279770983 1279771007 1279771434 1279771833 1268416844 1279770535 1279770534 1279770533"/>
    </person>
    <person id="ped20" type="ped_pedestrian" depart="0.12">
        <walk edges="1279771893 1279771934 1279771935 1279771717 1279771706 1279771705 1279772170 31549260 1279772158 1279770797 1279770798 1279770799 1279770800 1279770696 217104375 1279770795 1279770796 1279770771 217104371 1279770790 1279770791 1279770792 1279770787 217332653 1279770774 1279770775 1279771434 1279771833 1268416844 1279770535 1279770534 1279770533 218603049 1279771797 1279771836 1279771837 1279771838 1279771839 1279771840 1279771841 1279771842 1279771843 1279771636 1279771635 1279771634 1279771633 1279771624 1279771442 1279771443 1279771444 1279771568 1279771569 1279771570 1279771565 1279771447 1279771560 1279771559 1279771558 1279771557 1279771578 1279771579 1279771580 1279771581 1279771582 1279771548"/>
    </person>
    <person id="ped21" type="ped_pedestrian" depart="0.13">
        <walk edges="1279771376 1279771381 1279771313 1279771312 1279771311 1279771310 1279771309 1279771308 1279771307 1279771306 1279771304 1279771303 1279771270 1279771269 1279771281 1279771280 1279771279 1279771278 1279771277 1279771328 1279771318 1279771319 1279771320 1279771321 1279771322 1279771168 1279771167 1279771166 1279771165 1279771164 1279771163 1279771162 1279771161 1279771160 1279771074 1279771073 1279771088 1279770658 1279770659 1279770616 1279771444 1279771568 1279771569 1279771612 1279771611 1279771610 1279771609 218176940 1279771614 1279771615 1279771616 1279771617 1279771618 1279771675 218554718 1279771694 1279771695 218554720 1279770439 1266552021 1266552020 1279771650"/>
    </person>
    <person id="ped22" type="ped_pedestrian" depart="0.13">
        <walk edges="1279771567 1279771446 1279771565 1279771570 1279771569 1279771568 1279771444 1279771443 1279771442 1279771624 1279771633 1279771634 1279771635 1279771636 1279771843 1279771842 1279771841 1279771840 1279771839 1279771838 1279771837 1279771836 1279771797 218603049 1279770533 1279770534 1279770535 1268416844 1279771833 1279771434 1279770775 1279770774 217332653 1279770787 1279770792 1279770791 1279770790 217104371 1279770771 1279770796 1279770795 217104375 1279770696 1279770800 1279770799 1279770798 1279770797 1279772158 31549260 1279772170 1279771705 1279771706 1279771717 1279771935 1279771934 1279771893 1279771895 1279771932 1279771931 1279771930 1279771929 218830927 1279771939 1279770608 1279771938 1279770611 1279771957 1279765885 1279771952 1279771956 218834102 1279772088 1279772092 1279772093 1279772008 1279772037 218831295 1279772043 1279772042 1279772046 1279772047 1279772048 1279772049 1279771720 1279771719 1279771718 218831308"/>
    </person>
    <person id="ped23" type="ped_pedestrian" depart="0.14">
        <walk edges="1279770611 1279771938 1279770608 1279771939 218830927 1279771929 1279771930 1279771931 1279771932 1279771895 1279771893 1279771934 1279771935 1279771717 1279771706 1279771705 1279772170 31549260 1279772158 1279770797 1279770798 1279770799 1279770800 1279770696 217104375 1279770795 1279770796 1279770771 217104371 1279770790 1279770791 1279770792 1279770787 217332653 1279770774 1279770775 1279771434 1279771833 1268416844 1279770535 1279770534 1279770533 218603049 1279771797 1279771836 1279771837 1279771838 1279771839 1279771840 1279771841 1279771842 1279771843 1279771636 1279771635 1279771634 1279771633 1279771624 1279771442 1279771443 1279771444 1279771568 1279771569 1279771570 1279771565 1279771447 1279771560 1279771559 1279771558 1279771557 1279771578 1279771579 1279771580 1279771581 1279771582 1279771548 1279771550 218176910 1279771539 1279771540 1279771541 1279771542 1279771526 1279771527 1279771545 1279771546 1279771547 1279771390 1279771391 1279771392 1279771393 1279771497 1279771498 1279771499 1279771500 1279771501 1279771502 1279771470 1279771395 1279771396 1279772188 1279772200 1279770474"/>
    </person>
    <person id="ped24" type="ped_pedestrian" depart="0.14">
        <walk edges="1279771253 1279771255 1279771234 1279771233 1279771229 1279771228 1279771227 1279771226 1279771225 1279771074 1279771073 1279771088 1279770389 1279771435 1279771007 1279770983 218110530 1279770981 1279770980 1279770985 1279770978 1279770589 218110517 1279770965 218110518 1279770961 1279770960 1279770587 1279770586 1279770585 1279770558 1279770940 1279770941 1279770942 1279770943 1279770950"/>
    </person>
    <person id="ped25" type="ped_pedestrian" depart="0.15">
        <walk edges="1279770972 1279770964 218110517 1279770589 1279770978 1279770985 1279770980 1279770981 218110530 1279770983 1279771007 1279770775 1279770774 217332653 1279770787 1279770792 1279770791 1279770790 217104371 1279770771 1279770796 1279770795 217104375 1279770696 1279770800 1279770799 1279770798 1279770797 1279772158 31549260 1279772170 1279771705 1279771706 1279771717 1279771935 1279771934 1279771893 1279771895 1279771932 1279771931 1279771930 1279771941 1279771942 1279771949 1279771926 218830935 1279771961"/>
    </person>
    <person id="ped26" type="ped_pedestrian" depart="0.16">
        <walk edges="1279772085 1279772086 1279772070 218831433 1279772064 1279772067 1279772062 1279771712 1279771711 1279771710 1279771709 1279771708 1279770492 1279770493 1279770494 1279770495 1279770496 1279770497 1279770498 1279770499 1279770500 1279771879 1279771950 1279771949 1279771942 1279771941 1279771930 1279771931 1279771932 1279771895 1279771893 1279771934 1279771935 1279771717 1279771706 1279771705 1279772170 31549260 1279772158 1279772159 1279772160 1279772161 1279770661 1279770662 1279770663 1279770664 1279770665 1279770666 1279770756 1279770760 1279770669 1279770572 1279770571 1279770569 1279770568 1279770567 1279770566 1279770565 1279770564 1279770563 1279770562 1279770561"/>
    </person>
    <person id="ped27" type="ped_pedestrian" depart="0.16">
        <walk edges="1279771878 1279771950 1279771949 1279771942 1279771941 1279771930 1279771931 1279771932 1279771895 1279771893 1279771934 1279771935 1279771717 1279771706 1279771705 1279772170 31549260 1279772158 1279770797 1279770798 1279770799 1279770800 1279770696 217104375 1279770795 1279770796 1279770771 217104371 1279770790 1279770791 1279770792 1279770787 217332653 1279770774 1279770775 1279771435 1279770389 1279770407 1279771090 1279771042 1279771053 1279771101 1279771100 1279771099 1279771098 1279771097 1279771094 1279771095 1279771096 1279771084 218117801"/>
    </person>
    <person id="ped28" type="ped_pedestrian" depart="0.17">
        <walk edges="1279771185 1279771193 1279771147 1279771146 1279771145 1279771176 1279771143 1279771077 1279771076 1279771074 1279771073 1279771088 1279770389 1279771435 1279770775 1279770774 217332653 1279770787 1279770792 1279770791 1279770790 217104371 1279770771 1279770796 1279770795 217104375 1279770696 1279770800 1279770799 1279770798 1279770797 1279772158 31549260 1279772170 1279771705 1279771706 1279771717 1279771935 1279771934 1279771893 1279771895 1279771932 1279771931 1279771930 1279771941 1279771942 1279771949 1279771950 1279771879 1279770500 1279770499 1279770498 1279770497 1279770496 1279770495 1279770494 1279771919"/>
    </person>
    <person id="ped29" type="ped_pedestrian" depart="0.17">
        <walk edges="1279770459 1279772188 1279770458 1279770457 1279770442 1279771052 1279771292 1279771291 1279771290 1279771289 1279771288 1279771211 1279771210 1279771209 1279771205 1279771208 1279771207 1279771172 218119453 1279771199"/>
    </person>
    <person id="ped30" type="ped_pedestrian" depart="0.18">
        <walk edges="1279770388 1279771436 1279771640 1279771639 1279771638 1279771637 1279771636 1279771635 1279771634 1279771633 1279771624 1279771442 1279771443"/>
    </person>
    <person id="ped31" type="ped_pedestrian" depart="0.19">
        <walk edges="1279770472 1279770407 1279770389 1279771436 1279771640 1279771639 1279771638 1279771863"/>
    </person>
    <person id="ped32" type="ped_pedestrian" depart="0.19">
        <walk edges="1279771723 1279771724 1279772035 1279772036 1279772037 1279772008 1279772093 1279772092 1279772088 218834102 1279771956 1279771952 1279765885 1279771957 1279770611 1279771938 1279770608 1279771939 218830927 1279771929 1279771930 1279771931 1279771932 1279771895 1279771893 1279771934 1279771935 1279771717 1279771706 1279771705 1279772170 31549260 1279772158 1279770797 1279770798 1279770799 1279770800 1279770696 217104375 1279770795 1279770796 1279770771 217104371 1279770790 1279770791 1279770792 1279770787 217332653 1279770774 1279770775 1279771007 1279770983 218110530 1279770981 1279770980 1279770985 1279770978 1279770589 218110517 1279770965 1279770966 1279770991 1279770992 1279770989 1279770988 1279770993 1279771018"/>
    </person>
    <person id="ped33" type="ped_pedestrian" depart="0.20">
        <walk edges="1279770856 1279770564 217452676 1279770750 1279770749 1279770729 1279770746 1279770745 1279770744 1279770743 1279770742 1279770741 1279770740 1279770739 1279770738 1279770737 1279770736 1279770735 1279770734 1279770846"/>
    </person>
    <person id="ped34" type="ped_pedestrian" depart="0.20">
        <walk edges="1279770567 1279770568 1279770569 1279770571 1279770572 1279770573 1279770574 1279770575 1279770576 1279770577 1279770784 1279770783 1279770781 1279770762 1279770761 1279770766 1279770765 1279770767 1279770768 1279770769 1279770592 1279770776 217104357 1279770775 1279771435 1279770389 1279771088 1279771073 1279771074 1279771076 1279771077 1279771143 1279771176 218119446"/>
    </person>
    <person id="ped35" type="ped_pedestrian" depart="0.21">
        <walk edges="1279770731 217104341 1279770566 1279770567 1279770568 1279770569 1279770571 1279770572 1279770573 1279770574 1279770575 1279770576 1279770577 1279770784 1279770783 1279770781 1279770762 1279770761 1279770766 1279770765 1279770767 1279770768 1279770769 1279770592 1279770776 217104357 1279770775 1279771435 1279770389 1279771088 1279771073 1279771074 1279771160 1279771161 1279771162 1279771163 1279771164 1279771165 1279771166 1279771167 1279771168 1279771322 1279771321 1279771320 1279771319 1279771318 1279771328 1279771277 1279771278 1279771279 1279771339 1279771338 1279771337 1279771336"/>
    </person>
    <person id="ped36" type="ped_pedestrian" depart="0.22">
        <walk edges="1279771858 1279771633 1279771624 1279771442 1279771443 1279771444 1279771568 1279771569 1279771570 1279771565 1279771447 1279771560 1279771559 1279771558 1279771557 1279771578 1279771579 1279771580 1279771581 1279771582 1279771548 1279771550 218176910 1279771539 1279771540 1279771541 1279771542 1279771526 1279771527 1279771545 1279771546 1279771547 1279770615 1279770614 1279770613 1279771456 218175278"/>
    </person>
    <person id="ped37" type="ped_pedestrian" depart="0.22">
        <walk edges="1279771453 1279771452 1279771450 1279771449 1279771448 1279771447 1279771565 1279771570 1279771569 1279771621 1279771622 1279771625 1279771626 1279771627 1279771628 1279771688 1279771687 1279771680 1279771679 1279771678 1279771690 1279771689 1279771749 1279771748 1279771747 1279771746 1279771740 1279771739 218602403 1279770510 1279770511 1279770512 1279770513 1279770514 1279770515 1279770516 1279770517 1279770518 1279771463 1279771462 218601599 1279771440 1279771429 1279771428 1279770394 1279770377 1279770627"/>
    </person>
    <person id="ped38" type="ped_pedestrian" depart="0.23">
        <walk edges="1279771455 1279771454 1279771453 1279771452 1279771450 1279771449 1279771448 1279771447 1279771565 1279771570 1279771569 1279771568 1279771444 1279771443 1279771442 1279771624 1279771633 1279771634 1279771635 1279771636 1279771843 1279771842 1279771841 1279771840 1279771839 1279771838 1279771837 1279771836 1279771797 218603049 1279770533 1279770534 1279770535 1268416844 1279771833 1279771434 1279771007 1279770983 218110530 1279770981 1279770980 1279770985 1279770978 1279770589 218110517 1279770965 218110518 1279770961 1279770960 1279770587 1279770586 1279770585 1279770558 1279770940 1279770941 1279770942 1279770943"/>
    </person>
    <person id="ped39" type="ped_pedestrian" depart="0.23">
        <walk edges="1279770836 1279770835 1279770843 1279770842 1279770841 1279770865"/>
    </person>
    <person id="ped40" type="ped_pedestrian" depart="0.24">
        <walk edges="1279771737 1279771650 1266552020 1266552021 1279771426 218554720 1279771695 1279771694 218554718 1279771675 1279771619 1279771686 1279771685 1279771682 1279771681 1279771680 218604146 1279771808 1279771809 1279771804 1279771805 1279771806 1279771798 1279771797 218603049 1279770533 1279770534 1279770535 1268416844 1279771833 1279771434 1279770775 217104357 1279770776 1279770592 1279770593 1279770594"/>
    </person>
    <person id="ped41" type="ped_pedestrian" depart="0.25">
        <walk edges="1279771140 1279771127 1279771124 1279771123 1279771122 1279771080 1279771081 1279771082 1279771090 1279770407 1279770389 1279771436 1279771640 1279771639 1279771638 1279771637 1279771843 1279771842 1279771841 1279771840 1279771839 1279771838 1279771837 1279771836 1279771798 1279771806 1279771805 1279771804 1279771803 1279771802 218603029 1279771789 1279771790 1279771791 1279771792 218603027 1279770598 1279770599 1279770600 1279770601 1279770602 1279770603 1279770604 1279770605"/>
    </person>
    <person id="ped42" type="ped_pedestrian" depart="0.25">
        <walk edges="1279772174 1279770446 1279770447 1279770901 1279770844 1279770547 1279770546 1279770837 1279770836 1279770835 1279770847 1279770849 1279770851 217452678 1279770562 1279770561 1279770560 1279770584 1279770583 1279770582 1279770581 1279770580 1279770579 1279770578 1279770570 1279770559 1279770558 1279770585 1279770586 1279770587 1279770960 1279770961 218110518 1279770965 218110517 1279770589 1279770978 1279770985 1279770980 1279770981 218110530 1279770983 1279771007 1279771434 1279771833 1268416844 1279770535 1279770534 1279770533 218603049 1279771797 1279771798 1279771806 1279771805 1279771804 1279771809 1279771808 218604146 1279771680 1279771687 1279771688 1279771629 1279771630"/>
    </person>
    <person id="ped43" type="ped_pedestrian" depart="0.26">
        <walk edges="218025316 1279770905 1279770906 1279770907 1279770908 1279770909 1279770910 1279770911 1279770887 1279770875 1279770870 217480268 1279770580 1279770579 1279770578 1279770570 1279770559 1279770558 1279770585 1279770586 1279770587 1279770960 1279770961 218110518 1279770965 218110517 1279770589 1279770978 1279770985 1279770980 1279770981 218110530 1279770983 1279771007 1279771435 1279770389 1279771088 1279771073 1279771074 1279771225 1279771226 1279771227 1279771242"/>
    </person>
    <person id="ped44" type="ped_pedestrian" depart="0.26">
        <walk edges="1279770415 1279771402 1279771427 1279771426 218554720 1279771695 1279771694 218554718 1279771675 1279771619 1279771686 1279771685 1279771682 1279771681 1279771680 218604146 1279771808 1279771809 1279771804 1279771805 1279771806 1279771798 1279771797 218603049 1279770533 1279770534 1279770535 1268416844 1279771833 1279771434 1279771007 1279770983 218110530 1279770981 1279770980 1279770985 1279770978 1279770589 218110517 1279770965 218110518 1279770961 1279770960 1279770587 1279770586 1279770585 1279770558 1279770559 1279770570 1279770578 1279770579 1279770580 1279770581 1279770582 1279770583 1279770584 1279770560 1279770561 1279770562 217452678 1279770851 1279770849 1279770847 1279770835 1279770836 1279770837 1279770546 1279770547 1279770844 1279770900 1279770679 1279770678 1279770677 1279770733 217104333"/>
    </person>
    <person id="ped45" type="ped_pedestrian" depart="0.27">
        <walk edges="1279771641 1279771621 1279771569 1279771570 1279771565 1279771447 1279771560 1279771559 1279771558 1279771557 1279771578 1279771579 1279771580 1279771581 1279771582 1279771548 1279771550 218176910 1279771539 1279771540 1279771541 1279771542 1279771526 1279771527 1279771545 1279771546 1279771547 1279771390 1279771391 1279771392 1279771393 1279771497 1279771498 1279771499 1279771500 1279771501 1279771502 1279771470 1279771395 1279771396 1279772188 1279770460 1279770466 -726086495"/>
    </person>
    <person id="ped46" type="ped_pedestrian" depart="0.28">
        <walk edges="1279771955 1279771956 1279771952 1279765885 1279771957 1279770611 1279771938 1279770608 1279771939 218830927 1279771929 1279771930 1279771931 1279771932 1279771895 1279771893 1279771934 1279771935 1279771717 1279771706 1279771705 1279772170 31549260 1279772158 1279770797 1279770798 1279770799 1279770800 1279770696 217104375 1279770795 1279770796 1279770771 217104371 1279770790 1279770791 1279770792 1279770787 217332653 1279770774 1279770775 1279771007 1279770983 218110530 1279770981 1279770980 1279770985 1279770978 1279770589 218110517 1279770965 218110518 1279770961 1279770960 1279770587 1279770586 1279770585 1279770558 1279770559"/>
    </person>
    <person id="ped47" type="ped_pedestrian" depart="0.28">