<?xml version="1.0" encoding="UTF-8"?>

<!-- generated on 2025-12-17 16:56:08.984688 by randomTrips.py UNKNOWN
<configuration>
    <net-file value="dense.net.xml.gz"/>
    <output-trip-file value="dense.pedestrian.trips.xml"/>
    <route-file value="dense.pedestrian.rou.xml"/>
    <pedestrians value="True"/>
    <prefix value="ped"/>
    <vehicle-class value="pedestrian"/>
    <via-edge-types value="highway.motorway,highway.motorway_link,highway.trunk_link,highway.primary_link,highway.secondary_link,highway.tertiary_link"/>
    <random value="True"/>
    <remove-loops value="True"/>
    <validate value="True"/>
    <verbose value="True"/>
    <end value="120.0"/>
    <period value="0.03"/>
    <duarouter-routing-threads value="3"/>
</configuration>
-->

<!-- generated on 2025-12-17 16:56:07 by Eclipse SUMO duarouter Version 1.18.0
<configuration xmlns:xsi="http://www.w3.org/2001/XMLSchema-instance" xsi:noNamespaceSchemaLocation="http://sumo.dlr.de/xsd/duarouterConfiguration.xsd">

    <input>
        <net-file value="dense.net.xml.gz"/>
        <route-files value="dense.pedestrian.trips.xml"/>
    </input>

    <output>
        <output-file value="dense.pedestrian.trips.xml.tmp"/>
        <alternatives-output value="NUL"/>
        <write-trips value="true"/>
    </output>

    <processing>
        <remove-loops value="true"/>
        <routing-threads value="3"/>
    </processing>

    <time>
        <begin value="0.0"/>
        <end value="120.0"/>
    </time>

    <report>
        <verbose value="true"/>
        <ignore-errors value="true"/>
        <no-step-log value="true"/>
    </report>

</configuration>
-->

<routes xmlns:xsi="http://www.w3.org/2001/XMLSchema-instance" xsi:noNamespaceSchemaLocation="http://sumo.dlr.de/xsd/routes_file.xsd">
    <vType id="ped_pedestrian" vClass="pedestrian"/>
    <person id="ped0" type="ped_pedestrian" depart="0.00">
        <personTrip from="1279770408" to="1279770664" walkFactor="0.75"/>
    </person>
    <person id="ped1" type="ped_pedestrian" depart="0.03">
        <personTrip from="1279770992" to="218114987" walkFactor="0.75"/>
    </person>
    <person id="ped2" type="ped_pedestrian" depart="0.06">
        <personTrip from="1279771478" to="1279771108" walkFactor="0.75"/>
    </person>
    <person id="ped3" type="ped_pedestrian" depart="0.09">
        <personTrip from="1279771534" to="1279770694" walkFactor="0.75"/>
    </person>
    <person id="ped4" type="ped_pedestrian" depart="0.12">
        <personTrip from="1279771205" to="218603052" walkFactor="0.75"/>
    </person>
    <person id="ped5" type="ped_pedestrian" depart="0.15">
        <personTrip from="218119448" to="1279771848" walkFactor="0.75"/>
    </person>
    <person id="ped6" type="ped_pedestrian" depart="0.18">
        <personTrip from="1279771694" to="1279770685" walkFactor="0.75"/>
    </person>
    <person id="ped7" type="ped_pedestrian" depart="0.21">
        <personTrip from="1279771173" to="1279770521" walkFactor="0.75"/>
    </person>
    <person id="ped8" type="ped_pedestrian" depart="0.24">
        <personTrip from="1279771877" to="1279771247" walkFactor="0.75"/>
    </person>
    <person id="ped9" type="ped_pedestrian" depart="0.27">
        <personTrip from="1279772127" to="1279771787" walkFactor="0.75"/>
    </person>
    <person id="ped10" type="ped_pedestrian" depart="0.30">
        <personTrip from="217104326" to="1279770900" walkFactor="0.75"/>
    </person>
    <person id="ped11" type="ped_pedestrian" depart="0.33">
        <personTrip from="1279771974" to="1279770499" walkFactor="0.75"/>
    </person>
    <person id="ped12" type="ped_pedestrian" depart="0.36">
        <personTrip from="1279771704" to="1279772054" walkFactor="0.75"/>
    </person>
    <person id="ped13" type="ped_pedestrian" depart="0.39">
        <personTrip from="1279771764" to="1279771864" walkFactor="0.75"/>
    </person>
    <person id="ped14" type="ped_pedestrian" depart="0.42">
        <personTrip from="1279771324" to="218119453" walkFactor="0.75"/>
    </person>
    <person id="ped15" type="ped_pedestrian" depart="0.45">
        <personTrip from="1279770575" to="218603020" walkFactor="0.75"/>
    </person>
    <person id="ped16" type="ped_pedestrian" depart="0.48">
        <personTrip from="1279770440" to="1279770963" walkFactor="0.75"/>
    </person>
    <person id="ped17" type="ped_pedestrian" depart="0.51">
        <personTrip from="1279771966" to="1279771576" walkFactor="0.75"/>
    </person>
    <person id="ped18" type="ped_pedestrian" depart="0.54">
        <personTrip from="1279771915" to="1279770804" walkFactor="0.75"/>
    </person>
    <person id="ped19" type="ped_pedestrian" depart="0.57">
        <personTrip from="1279771005" to="1279771720" walkFactor="0.75"/>
    </person>
    <person id="ped20" type="ped_pedestrian" depart="0.60">
        <personTrip from="1279770905" to="843760493" walkFactor="0.75"/>
    </person>
    <person id="ped21" type="ped_pedestrian" depart="0.63">
        <personTrip from="1279772080" to="218401369" walkFactor="0.75"/>
    </person>
    <person id="ped22" type="ped_pedestrian" depart="0.66">
        <personTrip from="217452678" to="218177074" walkFactor="0.75"/>
    </person>
    <person id="ped23" type="ped_pedestrian" depart="0.69">
        <personTrip from="1279770377" to="1279770585" walkFactor="0.75"/>
    </person>
    <person id="ped24" type="ped_pedestrian" depart="0.72">
        <personTrip from="1279771325" to="-843760493" walkFactor="0.75"/>
    </person>
    <person id="ped25" type="ped_pedestrian" depart="0.75">
        <personTrip from="1279770814" to="1279771486" walkFactor="0.75"/>
    </person>
    <person id="ped26" type="ped_pedestrian" depart="0.78">
        <personTrip from="218110520" to="1279770576" walkFactor="0.75"/>
    </person>
    <person id="ped27" type="ped_pedestrian" depart="0.81">
        <personTrip from="1279771215" to="1279771990" walkFactor="0.75"/>
    </person>
    <person id="ped28" type="ped_pedestrian" depart="0.84">
        <personTrip from="1279770630" to="218603042" walkFactor="0.75"/>
    </person>
    <person id="ped29" type="ped_pedestrian" depart="0.87">
        <personTrip from="1279771762" to="1279772131" walkFactor="0.75"/>
    </person>
    <person id="ped30" type="ped_pedestrian" depart="0.90">
        <personTrip from="1279771052" to="1279770822" walkFactor="0.75"/>
    </person>
    <person id="ped31" type="ped_pedestrian" depart="0.93">
        <personTrip from="1279771923" to="1279771621" walkFactor="0.75"/>
    </person>
    <person id="ped32" type="ped_pedestrian" depart="0.96">
        <personTrip from="1279771483" to="1279771282" walkFactor="0.75"/>
    </person>
    <person id="ped33" type="ped_pedestrian" depart="0.99">
        <personTrip from="217441969" to="218611619" walkFactor="0.75"/>
    </person>
    <person id="ped34" type="ped_pedestrian" depart="1.02">
        <personTrip from="1279770621" to="1279770602" walkFactor="0.75"/>
    </person>
    <person id="ped35" type="ped_pedestrian" depart="1.05">
        <personTrip from="1279770775" to="1279771261" walkFactor="0.75"/>
    </person>
    <person id="ped36" type="ped_pedestrian" depart="1.08">
        <personTrip from="1279771555" to="1279771940" walkFactor="0.75"/>
    </person>
    <person id="ped37" type="ped_pedestrian" depart="1.11">
        <personTrip from="1279772007" to="1279771309" walkFactor="0.75"/>
    </person>
    <person id="ped38" type="ped_pedestrian" depart="1.14">
        <personTrip from="1279771423" to="1279770450" walkFactor="0.75"/>
    </person>
    <person id="ped39" type="ped_pedestrian" depart="1.17">
        <personTrip from="1279771652" to="218602426" walkFactor="0.75"/>
    </person>
    <person id="ped40" type="ped_pedestrian" depart="1.20">
        <personTrip from="1279771329" to="1279771172" walkFactor="0.75"/>
    </person>
    <person id="ped41" type="ped_pedestrian" depart="1.23">
        <personTrip from="1279770888" to="1279772051" walkFactor="0.75"/>
    </person>
    <person id="ped42" type="ped_pedestrian" depart="1.26">
        <personTrip from="1279770559" to="1279772043" walkFactor="0.75"/>
    </person>
    <person id="ped43" type="ped_pedestrian" depart="1.29">
        <personTrip from="1279770962" to="1279770601" walkFactor="0.75"/>
    </person>
    <person id="ped44" type="ped_pedestrian" depart="1.32">
        <personTrip from="1279771379" to="1279771653" walkFactor="0.75"/>
    </person>
    <person id="ped45" type="ped_pedestrian" depart="1.35">
        <personTrip from="218114986" to="1279770531" walkFactor="0.75"/>
    </person>
    <person id="ped46" type="ped_pedestrian" depart="1.38">
        <personTrip from="1279770404" to="218176275" walkFactor="0.75"/>
    </person>
    <person id="ped47" type="ped_pedestrian" depart="1.41">
        <personTrip from="1279770862" to="1279771420" walkFactor="0.75"/>
    </person>
    <person id="ped48" type="ped_pedestrian" depart="1.44">
        <personTrip from="1279771782" to="1279770467" walkFactor="0.75"/>
    </person>
    <person id="ped49" type="ped_pedestrian" depart="1.47">
        <personTrip from="1279771079" to="218603039" walkFactor="0.75"/>
    </person>
    <person id="ped50" type="ped_pedestrian" depart="1.50">
        <personTrip from="1279771043" to="1279770928" walkFactor="0.75"/>
    </person>
    <person id="ped51" type="ped_pedestrian" depart="1.53">
        <personTrip from="218834158" to="1266552023" walkFactor="0.75"/>
    </person>
    <person id="ped52" type="ped_pedestrian" depart="1.56">
        <personTrip from="1279772098" to="1279770810" walkFactor="0.75"/>
    </person>
    <person id="ped53" type="ped_pedestrian" depart="1.59">
        <personTrip from="1279771062" to="1279771255" walkFactor="0.75"/>
    </person>
    <person id="ped54" type="ped_pedestrian" depart="1.62">
        <personTrip from="1279771088" to="1279771154" walkFactor="0.75"/>
    </person>
    <person id="ped55" type="ped_pedestrian" depart="1.65">
        <personTrip from="1279770832" to="1279772139" walkFactor="0.75"/>
    </person>
    <person id="ped56" type="ped_pedestrian" depart="1.68">
        <personTrip from="218114993" to="218834147" walkFactor="0.75"/>
    </person>
    <person id="ped57" type="ped_pedestrian" depart="1.71">
        <personTrip from="1279771098" to="1279771171" walkFactor="0.75"/>
    </person>
    <person id="ped58" type="ped_pedestrian" depart="1.74">
        <personTrip from="1279770443" to="1279771740" walkFactor="0.75"/>
    </person>
    <person id="ped59" type="ped_pedestrian" depart="1.77">
        <personTrip from="1279770834" to="1279772094" walkFactor="0.75"/>
    </person>
    <person id="ped60" type="ped_pedestrian" depart="1.80">
        <personTrip from="1279770954" to="1279771490" walkFactor="0.75"/>
    </person>
    <person id="ped61" type="ped_pedestrian" depart="1.83">
        <personTrip from="218118885" to="1279771031" walkFactor="0.75"/>
    </person>
    <person id="ped62" type="ped_pedestrian" depart="1.86">
        <personTrip from="218175286" to="1279770830" walkFactor="0.75"/>
    </person>
    <person id="ped63" type="ped_pedestrian" depart="1.89">
        <personTrip from="1279771987" to="1279772040" walkFactor="0.75"/>
    </person>
    <person id="ped64" type="ped_pedestrian" depart="1.92">
        <personTrip from="1279771061" to="1279771788" walkFactor="0.75"/>
    </person>
    <person id="ped65" type="ped_pedestrian" depart="1.95">
        <personTrip from="1279771564" to="1279770554" walkFactor="0.75"/>
    </person>
    <person id="ped66" type="ped_pedestrian" depart="1.98">
        <personTrip from="1279770447" to="1279771247" walkFactor="0.75"/>
    </person>
    <person id="ped67" type="ped_pedestrian" depart="2.01">
        <personTrip from="1279772179" to="1279771687" walkFactor="0.75"/>
    </person>
    <person id="ped68" type="ped_pedestrian" depart="2.04">
        <personTrip from="-764147415" to="1279770500" walkFactor="0.75"/>
    </person>
    <person id="ped69" type="ped_pedestrian" depart="2.07">
        <personTrip from="1279771346" to="1279770564" walkFactor="0.75"/>
    </person>
    <person id="ped70" type="ped_pedestrian" depart="2.10">
        <personTrip from="1279770511" to="1279771012" walkFactor="0.75"/>
    </person>
    <person id="ped71" type="ped_pedestrian" depart="2.13">
        <personTrip from="1279771274" to="1279771920" walkFactor="0.75"/>
    </person>
    <person id="ped72" type="ped_pedestrian" depart="2.16">
        <personTrip from="1279770547" to="1279770833" walkFactor="0.75"/>
    </person>
    <person id="ped73" type="ped_pedestrian" depart="2.19">
        <personTrip from="-844176115" to="1279771932" walkFactor="0.75"/>
    </person>
    <person id="ped74" type="ped_pedestrian" depart="2.22">
        <personTrip from="1279771858" to="218603043" walkFactor="0.75"/>
    </person>
    <person id="ped75" type="ped_pedestrian" depart="2.25">
        <personTrip from="217452065" to="1279771441" walkFactor="0.75"/>
    </person>
    <person id="ped76" type="ped_pedestrian" depart="2.28">
        <personTrip from="1279770385" to="1279770426" walkFactor="0.75"/>
    </person>
    <person id="ped77" type="ped_pedestrian" depart="2.31">
        <personTrip from="218611614" to="1279770808" walkFactor="0.75"/>
    </person>
    <person id="ped78" type="ped_pedestrian" depart="2.34">
        <personTrip from="1279771021" to="1279770992" walkFactor="0.75"/>
    </person>
    <person id="ped79" type="ped_pedestrian" depart="2.37">
        <personTrip from="1279770846" to="1279770549" walkFactor="0.75"/>
    </person>
    <person id="ped80" type="ped_pedestrian" depart="2.40">
        <personTrip from="1279771282" to="1279770568" walkFactor="0.75"/>
    </person>
    <person id="ped81" type="ped_pedestrian" depart="2.43">
        <personTrip from="1279770671" to="1279771959" walkFactor="0.75"/>
    </person>
    <person id="ped82" type="ped_pedestrian" depart="2.46">
        <personTrip from="1279771104" to="218602420" walkFactor="0.75"/>
    </person>
    <person id="ped83" type="ped_pedestrian" depart="2.49">
        <personTrip from="1279771368" to="1279772116" walkFactor="0.75"/>
    </person>
    <person id="ped84" type="ped_pedestrian" depart="2.52">
        <personTrip from="1279770696" to="1279770358" walkFactor="0.75"/>
    </person>
    <person id="ped85" type="ped_pedestrian" depart="2.55">
        <personTrip from="218176292" to="1279771654" walkFactor="0.75"/>
    </person>
    <person id="ped86" type="ped_pedestrian" depart="2.58">
        <personTrip from="1279770589" to="1279771699" walkFactor="0.75"/>
    </person>
    <person id="ped87" type="ped_pedestrian" depart="2.61">
        <personTrip from="1279771645" to="218554697" walkFactor="0.75"/>
    </person>
    <person id="ped88" type="ped_pedestrian" depart="2.64">
        <personTrip from="1279772085" to="1279770569" walkFactor="0.75"/>
    </person>
    <person id="ped89" type="ped_pedestrian" depart="2.67">
        <personTrip from="1279771324" to="1279770626" walkFactor="0.75"/>
    </person>
    <person id="ped90" type="ped_pedestrian" depart="2.70">
        <personTrip from="1279771832" to="1279771178" walkFactor="0.75"/>
    </person>
    <person id="ped91" type="ped_pedestrian" depart="2.73">
        <personTrip from="218830934" to="1279770389" walkFactor="0.75"/>
    </person>
    <person id="ped92" type="ped_pedestrian" depart="2.76">
        <personTrip from="1279770869" to="1279772173" walkFactor="0.75"/>
    </person>
    <person id="ped93" type="ped_pedestrian" depart="2.79">
        <personTrip from="1279771850" to="1279770489" walkFactor="0.75"/>
    </person>
    <person id="ped94" type="ped_pedestrian" depart="2.82">
        <personTrip from="1279771325" to="1279770648" walkFactor="0.75"/>
    </person>
    <person id="ped95" type="ped_pedestrian" depart="2.85">
        <personTrip from="1279770709" to="218125980" walkFactor="0.75"/>
    </person>
    <person id="ped96" type="ped_pedestrian" depart="2.88">
        <personTrip from="1279771432" to="1279772040" walkFactor="0.75"/>
    </person>
    <person id="ped97" type="ped_pedestrian" depart="2.91">
        <personTrip from="1279771697" to="1279770546" walkFactor="0.75"/>
    </person>
    <person id="ped98" type="ped_pedestrian" depart="2.94">
        <personTrip from="1279771316" to="1279771526" walkFactor="0.75"/>
    </person>
    <person id="ped99" type="ped_pedestrian" depart="2.97">
        <personTrip from="1279771359" to="1279771304" walkFactor="0.75"/>
    </person>
    <person id="ped100" type="ped_pedestrian" depart="3.00">
        <personTrip from="1279771575" to="218114983" walkFactor="0.75"/>
    </person>
    <person id="ped101" type="ped_pedestrian" depart="3.03">
        <personTrip from="1279770920" to="1279771708" walkFactor="0.75"/>
    </person>
    <person id="ped102" type="ped_pedestrian" depart="3.06">
        <personTrip from="1279771614" to="1279771357" walkFactor="0.75"/>
    </person>
    <person id="ped103" type="ped_pedestrian" depart="3.09">
        <personTrip from="1279771621" to="1279770613" walkFactor="0.75"/>
    </person>
    <person id="ped104" type="ped_pedestrian" depart="3.12">
        <personTrip from="217103499" to="218602400" walkFactor="0.75"/>
    </person>
    <person id="ped105" type="ped_pedestrian" depart="3.15">
        <personTrip from="1279770500" to="1279770918" walkFactor="0.75"/>
    </person>
    <person id="ped106" type="ped_pedestrian" depart="3.18">
        <personTrip from="1279772112" to="1279771875" walkFactor="0.75"/>
    </person>
    <person id="ped107" type="ped_pedestrian" depart="3.21">
        <personTrip from="1279771209" to="1279771746" walkFactor="0.75"/>
    </person>
    <person id="ped108" type="ped_pedestrian" depart="3.24">
        <personTrip from="1279770375" to="1279770465" walkFactor="0.75"/>
    </person>
    <person id="ped109" type="ped_pedestrian" depart="3.27">
        <personTrip from="1279771381" to="1279771055" walkFactor="0.75"/>
    </person>
    <person id="ped110" type="ped_pedestrian" depart="3.30">
        <personTrip from="1279771409" to="930171748" walkFactor="0.75"/>
    </person>
    <person id="ped111" type="ped_pedestrian" depart="3.33">
        <personTrip from="1268416844" to="218830908" walkFactor="0.75"/>
    </person>
    <person id="ped112" type="ped_pedestrian" depart="3.36">
        <personTrip from="1279770932" to="1279771198" walkFactor="0.75"/>
    </person>
    <person id="ped113" type="ped_pedestrian" depart="3.39">
        <personTrip from="1279771942" to="218831295" walkFactor="0.75"/>
    </person>
    <person id="ped114" type="ped_pedestrian" depart="3.42">
        <personTrip from="1279770489" to="1279770484" walkFactor="0.75"/>
    </person>
    <person id="ped115" type="ped_pedestrian" depart="3.45">
        <personTrip from="970278168" to="1279770891" walkFactor="0.75"/>
    </person>
    <person id="ped116" type="ped_pedestrian" depart="3.48">
        <personTrip from="1279770475" to="1279770868" walkFactor="0.75"/>
    </person>
    <person id="ped117" type="ped_pedestrian" depart="3.51">
        <personTrip from="1279771448" to="1279771510" walkFactor="0.75"/>
    </person>
    <person id="ped118" type="ped_pedestrian" depart="3.54">
        <personTrip from="1279770509" to="1279771154" walkFactor="0.75"/>
    </person>
    <person id="ped119" type="ped_pedestrian" depart="3.57">
        <personTrip from="1279771715" to="1279770951" walkFactor="0.75"/>
    </person>
    <person id="ped120" type="ped_pedestrian" depart="3.60">
        <personTrip from="1279772146" to="1279771008" walkFactor="0.75"/>
    </person>
    <person id="ped121" type="ped_pedestrian" depart="3.63">
        <personTrip from="218025321" to="1279770417" walkFactor="0.75"/>
    </person>
    <person id="ped122" type="ped_pedestrian" depart="3.66">
        <personTrip from="1279771635" to="1279772210" walkFactor="0.75"/>
    </person>
    <person id="ped123" type="ped_pedestrian" depart="3.69">
        <personTrip from="1279771412" to="1279771687" walkFactor="0.75"/>
    </person>
    <person id="ped124" type="ped_pedestrian" depart="3.72">
        <personTrip from="1279771971" to="1279772168" walkFactor="0.75"/>
    </person>
    <person id="ped125" type="ped_pedestrian" depart="3.75">
        <personTrip from="218831309" to="1279770653" walkFactor="0.75"/>
    </person>
    <person id="ped126" type="ped_pedestrian" depart="3.78">
        <personTrip from="1279772143" to="218122156" walkFactor="0.75"/>
    </person>
    <person id="ped127" type="ped_pedestrian" depart="3.81">
        <personTrip from="1279772058" to="1279771972" walkFactor="0.75"/>
    </person>
    <person id="ped128" type="ped_pedestrian" depart="3.84">
        <personTrip from="218148747" to="1279770705" walkFactor="0.75"/>
    </person>
    <person id="ped129" type="ped_pedestrian" depart="3.87">
        <personTrip from="218118901" to="1279771257" walkFactor="0.75"/>
    </person>
    <person id="ped130" type="ped_pedestrian" depart="3.90">
        <personTrip from="1279770609" to="1279771417" walkFactor="0.75"/>
    </person>
    <person id="ped131" type="ped_pedestrian" depart="3.93">
        <personTrip from="1279770831" to="1279772071" walkFactor="0.75"/>
    </person>
    <person id="ped132" type="ped_pedestrian" depart="3.96">
        <personTrip from="1279771069" to="1279771273" walkFactor="0.75"/>
    </person>
    <person id="ped133" type="ped_pedestrian" depart="3.99">
        <personTrip from="1279772157" to="1279770714" walkFactor="0.75"/>
    </person>
    <person id="ped134" type="ped_pedestrian" depart="4.02">
        <personTrip from="1279771525" to="218176287" walkFactor="0.75"/>
    </person>
    <person id="ped135" type="ped_pedestrian" depart="4.05">
        <personTrip from="218148127" to="1279771897" walkFactor="0.75"/>
    </person>
    <person id="ped136" type="ped_pedestrian" depart="4.08">
        <personTrip from="1279771005" to="1279771179" walkFactor="0.75"/>
    </person>
    <person id="ped137" type="ped_pedestrian" depart="4.11">
        <personTrip from="1279770500" to="843760485" walkFactor="0.75"/>
    </person>
    <person id="ped138" type="ped_pedestrian" depart="4.14">
        <personTrip from="1279771780" to="218118898" walkFactor="0.75"/>
    </person>
    <person id="ped139" type="ped_pedestrian" depart="4.17">
        <personTrip from="1279770700" to="1279771487" walkFactor="0.75"/>
    </person>
    <person id="ped140" type="ped_pedestrian" depart="4.20">
        <personTrip from="1279771684" to="1279770465" walkFactor="0.75"/>
    </person>
    <person id="ped141" type="ped_pedestrian" depart="4.23">
        <personTrip from="1279772103" to="1279770558" walkFactor="0.75"/>
    </person>
    <person id="ped142" type="ped_pedestrian" depart="4.26">
        <personTrip from="1279770522" to="-843760491" walkFactor="0.75"/>
    </person>
    <person id="ped143" type="ped_pedestrian" depart="4.29">
        <personTrip from="1279771242" to="1279771712" walkFactor="0.75"/>
    </person>
    <person id="ped144" type="ped_pedestrian" depart="4.32">
        <personTrip from="1279770738" to="1279772042" walkFactor="0.75"/>
    </person>
    <person id="ped145" type="ped_pedestrian" depart="4.35">
        <personTrip from="1279771227" to="218176940" walkFactor="0.75"/>
    </person>
    <person id="ped146" type="ped_pedestrian" depart="4.38">
        <personTrip from="1279772205" to="1279770995" walkFactor="0.75"/>
    </person>
    <person id="ped147" type="ped_pedestrian" depart="4.41">
        <personTrip from="1279771651" to="1279771819" walkFactor="0.75"/>
    </person>
    <person id="ped148" type="ped_pedestrian" depart="4.44">
        <personTrip from="1279770597" to="1279770828" walkFactor="0.75"/>
    </person>
    <person id="ped149" type="ped_pedestrian" depart="4.47">
        <personTrip from="1279770806" to="1279770429" walkFactor="0.75"/>
    </person>
    <person id="ped150" type="ped_pedestrian" depart="4.50">
        <personTrip from="1279771513" to="218831305" walkFactor="0.75"/>
    </person>
    <person id="ped151" type="ped_pedestrian" depart="4.53">
        <personTrip from="1279772162" to="1279771883" walkFactor="0.75"/>
    </person>
    <person id="ped152" type="ped_pedestrian" depart="4.56">
        <personTrip from="1279770854" to="1279770589" walkFactor="0.75"/>
    </person>
    <person id="ped153" type="ped_pedestrian" depart="4.59">
        <personTrip from="218555720" to="1279770574" walkFactor="0.75"/>
    </person>
    <person id="ped154" type="ped_pedestrian" depart="4.62">
        <personTrip from="1279772116" to="1279771564" walkFactor="0.75"/>
    </person>
    <person id="ped155" type="ped_pedestrian" depart="4.65">
        <personTrip from="1279772002" to="1279771278" walkFactor="0.75"/>
    </person>
    <person id="ped156" type="ped_pedestrian" depart="4.68">
        <personTrip from="1279772171" to="1279771933" walkFactor="0.75"/>
    </person>
    <person id="ped157" type="ped_pedestrian" depart="4.71">
        <personTrip from="1279771627" to="217603012" walkFactor="0.75"/>
    </person>
    <person id="ped158" type="ped_pedestrian" depart="4.74">
        <personTrip from="1279770932" to="218110517" walkFactor="0.75"/>
    </person>
    <person id="ped159" type="ped_pedestrian" depart="4.77">
        <personTrip from="218025308" to="1279770471" walkFactor="0.75"/>
    </person>
    <person id="ped160" type="ped_pedestrian" depart="4.80">
        <personTrip from="1279770936" to="1279771270" walkFactor="0.75"/>
    </person>
    <person id="ped161" type="ped_pedestrian" depart="4.83">
        <personTrip from="1279772119" to="1279770428" walkFactor="0.75"/>
    </person>
    <person id="ped162" type="ped_pedestrian" depart="4.86">
        <personTrip from="1279772062" to="1279771174" walkFactor="0.75"/>
    </person>
    <person id="ped163" type="ped_pedestrian" depart="4.89">
        <personTrip from="218177078" to="-217104359" walkFactor="0.75"/>
    </person>
    <person id="ped164" type="ped_pedestrian" depart="4.92">
        <personTrip from="726086495" to="1279772178" walkFactor="0.75"/>
    </person>
    <person id="ped165" type="ped_pedestrian" depart="4.95">
        <personTrip from="1279771335" to="1279770635" walkFactor="0.75"/>
    </person>
    <person id="ped166" type="ped_pedestrian" depart="4.98">
        <personTrip from="1279771653" to="1279772172" walkFactor="0.75"/>
    </person>
    <person id="ped167" type="ped_pedestrian" depart="5.01">
        <personTrip from="1279772010" to="1279771519" walkFactor="0.75"/>
    </person>
    <person id="ped168" type="ped_pedestrian" depart="5.04">
        <personTrip from="1279772053" to="1279771905" walkFactor="0.75"/>
    </person>
    <person id="ped169" type="ped_pedestrian" depart="5.07">
        <personTrip from="218834164" to="1279770878" walkFactor="0.75"/>
    </person>
    <person id="ped170" type="ped_pedestrian" depart="5.10">
        <personTrip from="218176900" to="1279770477" walkFactor="0.75"/>
    </person>
    <person id="ped171" type="ped_pedestrian" depart="5.13">
        <personTrip from="1279771042" to="1279771440" walkFactor="0.75"/>
    </person>
    <person id="ped172" type="ped_pedestrian" depart="5.16">
        <personTrip from="1279771246" to="1279772152" walkFactor="0.75"/>
    </person>
    <person id="ped173" type="ped_pedestrian" depart="5.19">
        <personTrip from="1279770638" to="1279770999" walkFactor="0.75"/>
    </person>
    <person id="ped174" type="ped_pedestrian" depart="5.22">
        <personTrip from="218555724" to="1279770536" walkFactor="0.75"/>
    </person>
    <person id="ped175" type="ped_pedestrian" depart="5.25">
        <personTrip from="1279772208" to="1279771658" walkFactor="0.75"/>
    </person>
    <person id="ped176" type="ped_pedestrian" depart="5.28">
        <personTrip from="970278168" to="1279771394" walkFactor="0.75"/>
    </person>
    <person id="ped177" type="ped_pedestrian" depart="5.31">
        <personTrip from="1279771283" to="1265562495" walkFactor="0.75"/>
    </person>
    <person id="ped178" type="ped_pedestrian" depart="5.34">
        <personTrip from="218118880" to="1279770643" walkFactor="0.75"/>
    </person>
    <person id="ped179" type="ped_pedestrian" depart="5.37">
        <personTrip from="1279771565" to="1279771005" walkFactor="0.75"/>
    </person>
    <person id="ped180" type="ped_pedestrian" depart="5.40">
        <personTrip from="1279770382" to="1279770359" walkFactor="0.75"/>
    </person>
    <person id="ped181" type="ped_pedestrian" depart="5.43">
        <personTrip from="1279771899" to="218126887" walkFactor="0.75"/>
    </person>
    <person id="ped182" type="ped_pedestrian" depart="5.46">
        <personTrip from="1279771548" to="1279770618" walkFactor="0.75"/>
    </person>
    <person id="ped183" type="ped_pedestrian" depart="5.49">
        <personTrip from="218176900" to="218603020" walkFactor="0.75"/>
    </person>
    <person id="ped184" type="ped_pedestrian" depart="5.52">
        <personTrip from="1279772102" to="1279771592" walkFactor="0.75"/>
    </person>
    <person id="ped185" type="ped_pedestrian" depart="5.55">
        <personTrip from="1279771194" to="1279770791" walkFactor="0.75"/>
    </person>
    <person id="ped186" type="ped_pedestrian" depart="5.58">
        <personTrip from="1279771127" to="1279772179" walkFactor="0.75"/>
    </person>
    <person id="ped187" type="ped_pedestrian" depart="5.61">
        <personTrip from="1279772019" to="1279770689" walkFactor="0.75"/>
    </person>
    <person id="ped188" type="ped_pedestrian" depart="5.64">
        <personTrip from="1279771528" to="1279772075" walkFactor="0.75"/>
    </person>
    <person id="ped189" type="ped_pedestrian" depart="5.67">
        <personTrip from="218118885" to="1279771483" walkFactor="0.75"/>
    </person>