<?xml version="1.0" encoding="UTF-8"?>

<!-- generated on 2024-11-20 07:54:23.413307 by randomTrips.py UNKNOWN
<configuration>
    <net-file value="pasto.net.xml.gz"/>
    <output-trip-file value="pasto.pedestrian.trips.xml"/>
    <route-file value="pasto.pedestrian.rou.xml"/>
    <pedestrians value="True"/>
    <prefix value="ped"/>
    <vehicle-class value="pedestrian"/>
    <via-edge-types value="highway.motorway,highway.motorway_link,highway.trunk_link,highway.primary_link,highway.secondary_link,highway.tertiary_link"/>
    <random value="True"/>
    <max-distance value="60.0"/>
    <remove-loops value="True"/>
    <validate value="True"/>
    <verbose value="True"/>
    <end value="60.0"/>
    <period value="0.015"/>
    <duarouter-routing-threads value="3"/>
</configuration>
-->

<!-- generated on 2024-11-20 07:54:23 by Eclipse SUMO duarouter Version v1_18_0+0023-ef591d47046
<configuration xmlns:xsi="http://www.w3.org/2001/XMLSchema-instance" xsi:noNamespaceSchemaLocation="http://sumo.dlr.de/xsd/duarouterConfiguration.xsd">

    <input>
        <net-file value="pasto.net.xml.gz"/>
        <route-files value="pasto.pedestrian.trips.xml"/>
    </input>

    <output>
        <output-file value="pasto.pedestrian.rou.xml"/>
        <alternatives-output value="NUL"/>
    </output>

    <processing>
        <remove-loops value="true"/>
        <routing-threads value="3"/>
    </processing>

    <time>
        <begin value="0.0"/>
        <end value="60.0"/>
    </time>

    <report>
        <verbose value="true"/>
        <ignore-errors value="true"/>
        <no-step-log value="true"/>
    </report>

</configuration>
-->

<routes xmlns:xsi="http://www.w3.org/2001/XMLSchema-instance" xsi:noNamespaceSchemaLocation="http://sumo.dlr.de/xsd/routes_file.xsd">
    <vType id="ped_pedestrian" vClass="pedestrian"/>
    <person id="ped0" type="ped_pedestrian" depart="0.00">
        <walk edges="1279771454 1279771636 1279771635 1279771644 218177068 1279771639 218177073"/>
    </person>
    <person id="ped1" type="ped_pedestrian" depart="0.01">
        <walk edges="1279772133 1279772134 218834136 1279771716"/>
    </person>
    <person id="ped2" type="ped_pedestrian" depart="0.03">
        <walk edges="1279770692 1279770727 1279770697 217104326"/>
    </person>
    <person id="ped3" type="ped_pedestrian" depart="0.04">
        <walk edges="217603012 1279770562 1268416852 1279770928 1279770929 1279770912 1279770913 1279770914 218025314"/>
    </person>
    <person id="ped4" type="ped_pedestrian" depart="0.06">
        <walk edges="1279771997 1279772005"/>
    </person>
    <person id="ped5" type="ped_pedestrian" depart="0.07">
        <walk edges="218125982 1279771077 1279771078 1279771079 1279771080 1279771242 1279771241 1279771240 1279771243 1279771260 1279771256"/>
    </person>
    <person id="ped6" type="ped_pedestrian" depart="0.09">
        <walk edges="1279771515 1279771398 1279771399 1279771559 1279771558 1279771557 1279771556 1279771555 1279771554 1279771553 1279771552 1279770536 1279771544 1279771545 1279771546"/>
    </person>
    <person id="ped7" type="ped_pedestrian" depart="0.10">
        <walk edges="218114993 1279771006 1279771024 1279771004 1279771003 1279770998 1279770545 1279770544 1279771014 1279771015 1279771016 1279771017 1279770647 1279770648 1279770408 1279770479 1279771100 1279771052 218117795"/>
    </person>
    <person id="ped8" type="ped_pedestrian" depart="0.12">
        <walk edges="1279770820 1279770821 1279770754 1279770755 1279770737"/>
    </person>
    <person id="ped9" type="ped_pedestrian" depart="0.14">
        <walk edges="1279771474 1279771475 1279771476 1279770489 1279770398 1279770664 218115771 1279770808 1279770807 1279772171 31549260 1279772183 1279771717 1279771718 1279771946 1279771906 1279771908 1279771945 1279771944 1279771943 1279771954 1279771955 1279771962 1279771939 218830935 1279771975 1279771897 1279771898 1279771899 1279771900 1279771722 1279772000 1279771999 1279772018 1279772003"/>
    </person>
    <person id="ped10" type="ped_pedestrian" depart="0.15">
        <walk edges="1279771883 1279772177 1279772178 218555721 1279772123"/>
    </person>
    <person id="ped11" type="ped_pedestrian" depart="0.17">
        <walk edges="1279771637 1279771638 1279771639 1279771640 1279771700 1279771699 1279771693 1279771694 1279771695 1279771696"/>
    </person>
    <person id="ped12" type="ped_pedestrian" depart="0.18">
        <walk edges="1279771370 218147745 1279771283 1279771072 1279771071 1279771303"/>
    </person>
    <person id="ped13" type="ped_pedestrian" depart="0.20">
        <walk edges="1279771570 1279771569 1279771568 1279771567 1279771588 1279771565 1279770422"/>
    </person>
    <person id="ped14" type="ped_pedestrian" depart="0.21">
        <walk edges="1279771807 1279771801 218603029 1279771814 1279771813 1279771824 1279771825 1279771826 1279771835 1279771828 1279771842 1279771830 1279771831 1279771832"/>
    </person>
    <person id="ped15" type="ped_pedestrian" depart="0.23">
        <walk edges="1279770771 1279770770 1279770775 217104373 1279770802 1279770797 217332653 1279770784 1279770785 1279770413 1279771017 1279770993 218110530 1279770991"/>
    </person>
    <person id="ped16" type="ped_pedestrian" depart="0.24">
        <walk edges="1279770965 1279770966 1279770950 1279770569 1279770580 1279770588 1279770589 1279770590 217480268 1279771048 1279771050 1279770897 1279770921 1279770908"/>
    </person>
    <person id="ped17" type="ped_pedestrian" depart="0.26">
        <walk edges="1279770936 1279770938 1279770915 1279770914 1279770913 1279770912 1279770929 1279770928 1279770927 1279770560"/>
    </person>
    <person id="ped18" type="ped_pedestrian" depart="0.27">
        <walk edges="1279771580"/>
    </person>
    <person id="ped19" type="ped_pedestrian" depart="0.29">
        <walk edges="1279770840 1279770843 1279770753 1279770754 1279770755 1279770738 1279770739 217104341 1279770576 1268416855"/>
    </person>
    <person id="ped20" type="ped_pedestrian" depart="0.30">
        <walk edges="1279770955 1279770956 1279770913"/>
    </person>
    <person id="ped21" type="ped_pedestrian" depart="0.32">
        <walk edges="1279771933 1279771932 1279770502 1279771930 1279770504 1279771928 1279770506 1279771926 1279770508 1279771893 1279771894 1279771911 1279771910 1279771909 1279771908 1279771906 1279771946 1279771718 1279771717 1279772183 31549260 1279772171 1279770807 1279770808 218115771 1279770664 1279770398 1279770489 1279771477 1279771478 1279771479 1279771442"/>
    </person>
    <person id="ped22" type="ped_pedestrian" depart="0.33">
        <walk edges="1279770374"/>
    </person>
    <person id="ped23" type="ped_pedestrian" depart="0.35">
        <walk edges="1279770950 1279770569 1279770580 1279770588 1279770589 1279770590 217480268 1279771048 1279771050 1279770897 1279770921 1279770920 1279770933 1279770918"/>
    </person>
    <person id="ped24" type="ped_pedestrian" depart="0.36">
        <walk edges="1279771257 1279771259 1279771243 1279771240 1279771241 1279771242 1279771080 218125978"/>
    </person>
    <person id="ped25" type="ped_pedestrian" depart="0.38">
        <walk edges="1279771208 1279771204 1279771160 1279771167"/>
    </person>
    <person id="ped26" type="ped_pedestrian" depart="0.39">
        <walk edges="1279770970 1279770597 1279770596 1279770595 1279770568 1279770950 1279770967 1279770949"/>
    </person>
    <person id="ped27" type="ped_pedestrian" depart="0.41">
        <walk edges="1279771619 1279771618 1279771681 1279771632 1279771698 1279771697 1279771694"/>
    </person>
    <person id="ped28" type="ped_pedestrian" depart="0.42">
        <walk edges="1279770824 1279770823 217103526 1279770695 1279770694 1279770726 1279770693"/>
    </person>
    <person id="ped29" type="ped_pedestrian" depart="0.44">
        <walk edges="1279770968 1279770597 1279770970 1279770971 1279770972 218112247 1279771002 1279770999 1279770998 1279771003 1279771029 1279771018"/>
    </person>
    <person id="ped30" type="ped_pedestrian" depart="0.45">
        <walk edges="1279771095 1279771106 1279771105"/>
    </person>
    <person id="ped31" type="ped_pedestrian" depart="0.47">
        <walk edges="218119448 1279771208 1279771207"/>
    </person>
    <person id="ped32" type="ped_pedestrian" depart="0.48">
        <walk edges="1266552019 1279770518 1279770519 1279771766"/>
    </person>
    <person id="ped33" type="ped_pedestrian" depart="0.50">
        <walk edges="1279771569 1279771568 1279771567 1279771588 1279771565"/>
    </person>
    <person id="ped34" type="ped_pedestrian" depart="0.51">
        <walk edges="1279771172 1279771171 1279771170 1279771086 1279771087 1279771088"/>
    </person>
    <person id="ped35" type="ped_pedestrian" depart="0.53">
        <walk edges="1279770973 1279770972 218110518 1279770975 218110517 1279770599 1279770988 1279770995"/>
    </person>
    <person id="ped36" type="ped_pedestrian" depart="0.54">
        <walk edges="1279770702 1279770701 1279770700 1279770699 1279770679 1279770680 1279770689 1279770729 1279770691"/>
    </person>
    <person id="ped37" type="ped_pedestrian" depart="0.56">
        <walk edges="1279770697 1279770728 1279770729 1279770689 1279770680 1279770679 1279770699 1279770700 217104383 1279770813"/>
    </person>
    <person id="ped38" type="ped_pedestrian" depart="0.57">
        <walk edges="1279771515 1279771398 1279771399 1279771400 1279771401 1279771402 1279771403 1279771509 1279771504"/>
    </person>
    <person id="ped39" type="ped_pedestrian" depart="0.59">
        <walk edges="1279771820 1279771818 1279771819"/>
    </person>
    <person id="ped40" type="ped_pedestrian" depart="0.60">
        <walk edges="1279770479 1279771100 1279771092 218117796"/>
    </person>
    <person id="ped41" type="ped_pedestrian" depart="0.62">
        <walk edges="1279771049 1279771048 217480268 1279770591 1279770592 1279770905 1279770594 1279770570 1279770863 1279770864 217452078 1279770851 1279770875 1279771039"/>
    </person>
    <person id="ped42" type="ped_pedestrian" depart="0.63">
        <walk edges="218119455 1279771178 1279771177 1279771176 218118904"/>
    </person>
    <person id="ped43" type="ped_pedestrian" depart="0.65">
        <walk edges="218834158 1279772162 1279772163 218834164 1279772160 1279772148 1279772145 1279772141 1279772140"/>
    </person>
    <person id="ped44" type="ped_pedestrian" depart="0.66">
        <walk edges="218177073 1279771640 1279771700 1279771699 1279771693 218554704"/>
    </person>
    <person id="ped45" type="ped_pedestrian" depart="0.68">
        <walk edges="218604146 1279771692 1279771693 1279771694"/>
    </person>
    <person id="ped46" type="ped_pedestrian" depart="0.69">
        <walk edges="1279771938 1279771889 1279771897 1279771898 1279771899 1279771900 1279771722 1279772000 1279771999 1279771998 1279772006"/>
    </person>
    <person id="ped47" type="ped_pedestrian" depart="0.71">
        <walk edges="1279770713 1279770708 1279770709 1279770710 1279770701 217104383 1279770814"/>
    </person>
    <person id="ped48" type="ped_pedestrian" depart="0.72">
        <walk edges="1279770836 1279770752 1279770753 1279770858 1279770857 1279770853"/>
    </person>
    <person id="ped49" type="ped_pedestrian" depart="0.75">
        <walk edges="218025330 1279770966 1279770950 1279770568 1279770595 1279770596 1279770968"/>
    </person>
    <person id="ped50" type="ped_pedestrian" depart="0.77">
        <walk edges="1279772129 1279772120 1279771712 1279771713 1279771714 1279772135 1279772136 1279772139 1279772144 218834155 1279772158"/>
    </person>
    <person id="ped51" type="ped_pedestrian" depart="0.78">
        <walk edges="1279771372 1279771306 1279771307 1279771308 1279771309 1279771310 1279771298 218126711"/>
    </person>
    <person id="ped52" type="ped_pedestrian" depart="0.80">
        <walk edges="1279771795 1279771794 1279771791 1279771785 1279771784 1279771783 1279771442 1279771443 1279771444 1279771445 1279771446 1279770388 -217104359"/>
    </person>
    <person id="ped53" type="ped_pedestrian" depart="0.81">
        <walk edges="1279772021 1279772023 1265562497 1279770494"/>
    </person>
    <person id="ped54" type="ped_pedestrian" depart="0.83">
        <walk edges="1279770427 1279770438 1279770439 1279770440 1279771664"/>
    </person>
    <person id="ped55" type="ped_pedestrian" depart="0.84">
        <walk edges="1279771608 1279771591 1279771590 1279771585 1279771570 1279771583 1279771572 1279771460 1279771461 1279771462"/>
    </person>
    <person id="ped56" type="ped_pedestrian" depart="0.86">
        <walk edges="1279771394 1279771319 1279771318 1279771317 1279771316"/>
    </person>
    <person id="ped57" type="ped_pedestrian" depart="0.87">
        <walk edges="1279771778 1279771777 1279770610 1279771776 1279770608 218603027 1279771805 1279771804 1279771808 1279771809"/>
    </person>
    <person id="ped58" type="ped_pedestrian" depart="0.89">
        <walk edges="218603039 1279771830 1279771842 1279771828 1279771835 1279771826"/>
    </person>
    <person id="ped59" type="ped_pedestrian" depart="0.90">
        <walk edges="1279770857 1279770858 1279770754 1268416860"/>
    </person>
    <person id="ped60" type="ped_pedestrian" depart="0.92">
        <walk edges="1279771338 1279771328 1279771329 1279771330 1279771333 1279771332 1279771178 1279771177 1279771176 1279771175 1279771174 1279771173 1279771172 1279771171 1279771170 1279771084 1279771083 1279771098 1279770476 1279770667 1279770410 1279771456 1279771457 1279771458 1279771459 1279771460 1279771461 1279771462 1279771464 1279771465 1279771466"/>
    </person>
    <person id="ped61" type="ped_pedestrian" depart="0.93">
        <walk edges="218147745 1279771282 1279771281 1279771313 1279771314 1279771316 1279771317 1279771307 1279771308 1279771309 1279771310 1279771299 1279771300 1279771301 1279771302 1279771062 1279770369 1279772184 1279770462 1279770463 1279770437 1279770436 1279770435 1279770434 1279771526 1279771527 1279771528 1279771529 1279771403"/>
    </person>
    <person id="ped62" type="ped_pedestrian" depart="0.95">
        <walk edges="1279770781 1279770806 1279770805 1279770804 1279770803 1279770703 1279770702 1279770701 1279770700 1279770769"/>
    </person>
    <person id="ped63" type="ped_pedestrian" depart="0.96">
        <walk edges="1279770925 1279770926 1279770927 1279770928 1279770929 1279770912 1279770913 1279770914 1279770915 1279770938 1279770917 1279770932 218025308 1279770931"/>
    </person>
    <person id="ped64" type="ped_pedestrian" depart="0.98">
        <walk edges="1279771529 1279771402 1279771401 1279771400 1279771559 1279771558 1279771557 1279771539 1279771538"/>
    </person>
    <person id="ped65" type="ped_pedestrian" depart="0.99">
        <walk edges="218148124 1279771068 1279771067 1279771066 1279771065 1279771064 1279771062 1279770369 1279772184 1279770462 1279770463 1279771406 1279771405 1279771404 1279771396 1279771473 1279771472 1279771471 1279771470 1279771469 1279771468"/>
    </person>
    <person id="ped66" type="ped_pedestrian" depart="1.01">
        <walk edges="1279771236 1279771237 1279771238 1279771239 1279771240 1279771241 1279771242 1279771080 1279771079 1279771078"/>
    </person>
    <person id="ped67" type="ped_pedestrian" depart="1.02">
        <walk edges="1279772119 1279772128 1279772147"/>
    </person>
    <person id="ped68" type="ped_pedestrian" depart="1.04">
        <walk edges="1279770553 1279770849 1279770850 1279770875"/>
    </person>
    <person id="ped69" type="ped_pedestrian" depart="1.05">
        <walk edges="218176917 1279770424 1279770425 1279770426"/>
    </person>
    <person id="ped70" type="ped_pedestrian" depart="1.07">
        <walk edges="1279770743 1279770855 1279770555 1279770554 1279770847 1279770846 1279770845 1279770853 1279770852 217452078"/>
    </person>
    <person id="ped71" type="ped_pedestrian" depart="1.08">
        <walk edges="1279772017 1279771999 1279772000 1279771723 1279772032 1279772031 1279772030 1279772029 1279772028 1279770496 1279770495 1265562497 1279772023"/>
    </person>
    <person id="ped73" type="ped_pedestrian" depart="1.11">
        <walk edges="1279772170 1279772171 1279770807 1279770808 218115771 1279770663"/>
    </person>
    <person id="ped74" type="ped_pedestrian" depart="1.12">
        <walk edges="1279771689 1279771698 1279771697 1279771694 1279771693 1279771692 218604146 1279771820 1279771818 1279771819 1279771811 1279771849 218604156 1279771859"/>
    </person>
    <person id="ped75" type="ped_pedestrian" depart="1.14">
        <walk edges="1279771788 1279771793 1279771794 1279771795 1279771878 1279771797 1279771880 1279771799 1279771832 1279771831 218603039 1279771833"/>
    </person>
    <person id="ped76" type="ped_pedestrian" depart="1.15">
        <walk edges="218025300 1279770569 1279770568 218025323"/>
    </person>
    <person id="ped77" type="ped_pedestrian" depart="1.17">
        <walk edges="1279770612 1279771777 1279770610 1279771776 1279770608 218603027 1279771806 1279771807 1279771790 1279771789 1279771788 1279771787 218602419"/>
    </person>
    <person id="ped78" type="ped_pedestrian" depart="1.18">
        <walk edges="1279771151 1279771168 1279771160 1279771204 1279771208 1279771209 218119453 218122150"/>
    </person>
    <person id="ped79" type="ped_pedestrian" depart="1.20">
        <walk edges="218175284 1279771461 1279771460 1279771459 1279771458 1279771457 1279771456 1279770410 1279770667 1279770476 1279771098 1279771083 1279771084 1279771235 1279771236 1279771237 1279771238 1279771239 1279771243 1279771259 1279771257"/>
    </person>
    <person id="ped80" type="ped_pedestrian" depart="1.21">
        <walk edges="1279771824 1279771825 1279771826 1279771835 1279771828 1279771842 1279771830 1279771831 218603042 1279771844 1279771843"/>
    </person>
    <person id="ped81" type="ped_pedestrian" depart="1.23">
        <walk edges="218148123 1279771069 1279771068 1279771067 1279771066 1279771315 1279771323"/>
    </person>
    <person id="ped82" type="ped_pedestrian" depart="1.24">
        <walk edges="1279771757 1279771758 218602403 1266552019 1279771774"/>
    </person>
    <person id="ped83" type="ped_pedestrian" depart="1.26">
        <walk edges="1279771047 1279771048 217480268 1279770591 1279770592 1279770905 1279770594 1279770570 1279770571 217452072 1279770853 1279770845 217452065"/>
    </person>
    <person id="ped84" type="ped_pedestrian" depart="1.27">
        <walk edges="1279770745 1279770744 1279770743 1279770855 1279770854 1279770910"/>
    </person>
    <person id="ped85" type="ped_pedestrian" depart="1.29">
        <walk edges="1279771829 1279771830 1279771831 1279771832"/>
    </person>
    <person id="ped86" type="ped_pedestrian" depart="1.30">
        <walk edges="1279771470 1279771471 1279771472 1279771473 1279771396 1279771404 1279771405 1279771406 1279770463 1279770462 1279772184 1279770369 1279771062 1279771302 1279771301 1279771300 1279771299 1279771310 1279771309 1279771308 1279771307 1279771317 1279771316 1279771314 1279771364"/>
    </person>
    <person id="ped87" type="ped_pedestrian" depart="1.32">
        <walk edges="1279771860 218604156 1279771849 1279771811 1279771819 1279771818 1279771820 218604146 1279771692 1279771699 1279771700 1279771641 1279771642 218554712"/>
    </person>
    <person id="ped88" type="ped_pedestrian" depart="1.33">
        <walk edges="1279771319 1279771318 1279771317 1279771316 1279771314 1279771364 1279771363"/>
    </person>
    <person id="ped89" type="ped_pedestrian" depart="1.35">
        <walk edges="1279771725 1279772075 1279772074 1279772098 1279772085"/>
    </person>
    <person id="ped90" type="ped_pedestrian" depart="1.36">
        <walk edges="1279771479 1279771783 1279771784 1279771785 1279771786 1279771787 1279771793"/>
    </person>
    <person id="ped91" type="ped_pedestrian" depart="1.38">
        <walk edges="1279770918 1279770917 1279770938 1279770915 1279770914 1279770913 1279770912 218025321"/>
    </person>
    <person id="ped92" type="ped_pedestrian" depart="1.39">
        <walk edges="1279770536 1279771551 218176910 1279771562 218176913 1279770532 218176906 1279770426"/>
    </person>
    <person id="ped93" type="ped_pedestrian" depart="1.41">
        <walk edges="1279771709 1279771703 1279771708 218554720"/>
    </person>
    <person id="ped94" type="ped_pedestrian" depart="1.42">
        <walk edges="218126888 1279771281 1279771280 1279771279 1279771291 1279771290 1279771289 1279771288 1279771287 1279771339 1279771340"/>
    </person>
    <person id="ped95" type="ped_pedestrian" depart="1.44">
        <walk edges="1279770900 1279770881 217480268 1279770590 1279770589 1279770588 1279770580 1279770569 1279770568"/>
    </person>
    <person id="ped96" type="ped_pedestrian" depart="1.45">
        <walk edges="1279771329 1279771330 1279771333 1279771332 1279771178 1279771166 1279771167 1279771160 1279771205 218119450"/>
    </person>
    <person id="ped97" type="ped_pedestrian" depart="1.47">
        <walk edges="1279771893 1279771892 1279771963 1279771939 218830935 1279771974 1279771973 1279771972 1279771967 1279771966 1279771969 218834102 1279772101 1279772105 218834105 1279771978 1279771983 1279771984"/>
    </person>
    <person id="ped98" type="ped_pedestrian" depart="1.48">
        <walk edges="217103500 1279770694 1279770726 1279770727 1279770697 1279770698 1279770736 1279770737 1279770738"/>
    </person>
    <person id="ped99" type="ped_pedestrian" depart="1.50">
        <walk edges="1279770951 1279770950 1279770568 1279770595 1279770596 1279770597 1279770970 1279770971 1279770972 218112247 1279771002 1279770999 1279770998 1279771003 1279771028 1279771021 1279771020"/>
    </person>
    <person id="ped100" type="ped_pedestrian" depart="1.51">
        <walk edges="1279771090 1279771132 218118878"/>
    </person>
    <person id="ped101" type="ped_pedestrian" depart="1.53">
        <walk edges="218176906 1279770532 218176913 1279771560 1279771614"/>
    </person>
    <person id="ped102" type="ped_pedestrian" depart="1.54">
        <walk edges="218175283 1279771462 1279771461 218175285"/>
    </person>
    <person id="ped103" type="ped_pedestrian" depart="1.56">
        <walk edges="218831299"/>
    </person>
    <person id="ped104" type="ped_pedestrian" depart="1.57">
        <walk edges="218118901 1279771173 1279771174 218118902"/>
    </person>
    <person id="ped105" type="ped_pedestrian" depart="1.59">
        <walk edges="1279771275 1279771076 1279771077 1279771078 1279771079 1279771080 1279771081 1279771082 1279771098 1279770476 1279770667 1279770410 1279771456 1279771457 1279771458 1279771459 1279771572 1279771583 1279771570 1279771585 1279771590 1279771591 1279771592 1279771600 1279771594 1279771614"/>
    </person>
    <person id="ped106" type="ped_pedestrian" depart="1.60">
        <walk edges="1279771412 1279770397 1279770398 1279770664 218115771 1279770808 1279770807 1279772171 31549260 1279772183 1279771717 1279771950 1279771951 1279770621 1279771970 1279765885 1279771965 1279771969 218834102 1279772101 1279772105 218834105 1279771982 1279771981 1279771990 1266552012 1279771993 1279771995 1279771996 1279772005"/>
    </person>
    <person id="ped107" type="ped_pedestrian" depart="1.62">
        <walk edges="1279770694 1279770726 1279770727 1279770697 1279770698 1279770736 1279770737 1279770738 1279770739"/>
    </person>
    <person id="ped109" type="ped_pedestrian" depart="1.65">
        <walk edges="1279771512 1279771490 1279771510 1279771509 1279771505"/>
    </person>
    <person id="ped111" type="ped_pedestrian" depart="1.68">
        <walk edges="1279771312 1279771316 1279771317 1279771307 1279771308 1279771309 1279771310 1279771298 1279771222 1279771223 1279771230 218122176"/>
    </person>
    <person id="ped112" type="ped_pedestrian" depart="1.69">
        <walk edges="1279770519 1279770518 218602403 1279771752 1279771753 1279771759 1279771760 1279771761 1279771762 1279771701"/>
    </person>
    <person id="ped113" type="ped_pedestrian" depart="1.71">
        <walk edges="1279771663 1279771662 1279771751 1279771661"/>
    </person>
    <person id="ped114" type="ped_pedestrian" depart="1.72">
        <walk edges="1279770428 1279770429 1279771521 1279771522 1279771523 1279771524 1279771556"/>
    </person>
    <person id="ped115" type="ped_pedestrian" depart="1.74">
        <walk edges="1279771378 1279771395 1279771319 1279771318 1279771307 1279771308 1279771309 1279771310 1279771299 1279771300 1279771301 1279771302 1279771062 1279770369 1279772184 1279770462 1279770463 1279771406 1279771405 1279771404 1279771396 1279771473"/>
    </person>
    <person id="ped116" type="ped_pedestrian" depart="1.75">
        <walk edges="1279771882 1279771845 1279771846"/>
    </person>
    <person id="ped117" type="ped_pedestrian" depart="1.77">
        <walk edges="1279770710 1279770709 1279770708 1279770707 1279770706"/>
    </person>
    <person id="ped118" type="ped_pedestrian" depart="1.78">
        <walk edges="218118878 1279771132 1279771090 218117797"/>
    </person>
    <person id="ped119" type="ped_pedestrian" depart="1.80">
        <walk edges="1279770502 1279771930 1279770504 1279771928 1279770506 1279771926 1279770508 1279771893 1279771894 1279771911 1279771910 1279771909 1279771908 1279771906 1279771946 1279771718 1279771717 1279772183 31549260 1279772171 1279770807 1279770808 218115771 1279770664 1279770398 1279770397 1279770417"/>
    </person>
    <person id="ped120" type="ped_pedestrian" depart="1.81">
        <walk edges="1279771795 1279771794 1279771793 1279771788 1279771789 1279771790 1279771807 1279771806 218603027 1279770608 1279771776 1279770610 1279771777 1279770612 1279771779 1279770613"/>
    </person>
    <person id="ped121" type="ped_pedestrian" depart="1.83">
        <walk edges="1279771007 1279771008 1279771010 218114986"/>
    </person>
    <person id="ped122" type="ped_pedestrian" depart="1.84">
        <walk edges="1279771314 1279771313 1279771280 1279771279 1279771291 1279771290 1279771289 1279771288 1279771287 1279771338 1279771328 1279771329 218131184 1279771341"/>
    </person>
    <person id="ped123" type="ped_pedestrian" depart="1.86">
        <walk edges="1279771221 1279771222 1279771223 1279771230 1279771229 1279771228 218122177"/>
    </person>
    <person id="ped124" type="ped_pedestrian" depart="1.87">
        <walk edges="1279771092 1279771100 1279770479 1279770665 1279772197 1279770365 1279770927 1279770928 1279770929 1279770912 1279770956 1279770955 1279770958"/>
    </person>
    <person id="ped125" type="ped_pedestrian" depart="1.89">
        <walk edges="1279771022 1279771004 1279771003 1279770998 1279770999 1279771002 218112247 1279770972 1279770971 1279770970 1279770597 1279770596 1279770595 1279770568 1279770950 1279770967 1279770949"/>
    </person>
    <person id="ped126" type="ped_pedestrian" depart="1.90">
        <walk edges="1279771994 1266552012 1279771990 1279771981 1279771982 218834105 1279772106 1279772022 1265562497"/>
    </person>
    <person id="ped127" type="ped_pedestrian" depart="1.92">
        <walk edges="1279771345"/>
    </person>
    <person id="ped128" type="ped_pedestrian" depart="1.93">
        <walk edges="1279770413 1279770412"/>
    </person>
    <person id="ped129" type="ped_pedestrian" depart="1.95">
        <walk edges="1279772082 1279772084 1279772083 218831433 1279772077"/>
    </person>
    <person id="ped130" type="ped_pedestrian" depart="1.96">
        <walk edges="1279771450 1279771449 1279771448 1279770390 1279770666 1279770479"/>
    </person>
    <person id="ped131" type="ped_pedestrian" depart="1.98">
        <walk edges="217603012 1279770562 1268416852 1279770927 1279770365 1279770461"/>
    </person>
    <person id="ped132" type="ped_pedestrian" depart="1.99">
        <walk edges="1279770711 1279770709 1279770710 1279770701 1279770700 1279770769 1279770678 1279770583"/>
    </person>
    <person id="ped133" type="ped_pedestrian" depart="2.01">
        <walk edges="1279770546 1279772176 1268416846 1279770688"/>
    </person>
    <person id="ped134" type="ped_pedestrian" depart="2.02">
        <walk edges="1279770778 1279770602 1279770786 217104357 1279770785 1279770413 1279771017 1279771016 218112241 1279770985 1279770986 1279770987 1279771045 1279771043 218110518 1279770971"/>
    </person>
    <person id="ped135" type="ped_pedestrian" depart="2.04">
        <walk edges="1279772146 1279772148 1279772160 1279772159"/>
    </person>
    <person id="ped136" type="ped_pedestrian" depart="2.05">
        <walk edges="1279771531 1279771530 1279771402 1279771401 1279771400 1279771399 1279771398 1279771516 218176897"/>
    </person>
    <person id="ped137" type="ped_pedestrian" depart="2.07">
        <walk edges="217603003 1279770900 1279770881 217480268 1279770591 1279770592 1279770905 1279770594 1279770570 1279770863 1279770864 217452078 1279770851 1279770875 1279771039"/>
    </person>
    <person id="ped138" type="ped_pedestrian" depart="2.08">
        <walk edges="1279770750 1279770838 1279770752"/>
    </person>
    <person id="ped139" type="ped_pedestrian" depart="2.10">
        <walk edges="218554712 1279771643 1279771644 1279771635 1279771645 1279771646 1279771647 1279771874 1279771856 1279771855"/>
    </person>
    <person id="ped140" type="ped_pedestrian" depart="2.11">
        <walk edges="218831295 1279772051 1279772052 218949978 1279772065 1279772066"/>
    </person>
    <person id="ped141" type="ped_pedestrian" depart="2.13">
        <walk edges="218025293 1279770570 1279770571 1279770572 217452678 1279770861 1279770859 1279770858 1279770753 1279770843"/>
    </person>
    <person id="ped142" type="ped_pedestrian" depart="2.14">
        <walk edges="1279771573 1279771574 1279770421 1279771565 1279771588 1279771567 1279771586 1279771590 1279771606"/>
    </person>
    <person id="ped143" type="ped_pedestrian" depart="2.16">