<?xml version="1.0" encoding="UTF-8"?>

<!-- generated on 2024-11-20 07:54:23.867147 by randomTrips.py UNKNOWN
<configuration>
    <net-file value="pasto.net.xml.gz"/>
    <output-trip-file value="pasto.pedestrian.trips.xml"/>
    <route-file value="pasto.pedestrian.rou.xml"/>
    <pedestrians value="True"/>
    <prefix value="ped"/>
    <vehicle-class value="pedestrian"/>
    <via-edge-types value="highway.motorway,highway.motorway_link,highway.trunk_link,highway.primary_link,highway.secondary_link,highway.tertiary_link"/>
    <random value="True"/>
    <max-distance value="60.0"/>
    <remove-loops value="True"/>
    <validate value="True"/>
    <verbose value="True"/>
    <end value="60.0"/>
    <period value="0.015"/>
    <duarouter-routing-threads value="3"/>
</configuration>
-->

<!-- generated on 2024-11-20 07:54:23 by Eclipse SUMO duarouter Version v1_18_0+0023-ef591d47046
<configuration xmlns:xsi="http://www.w3.org/2001/XMLSchema-instance" xsi:noNamespaceSchemaLocation="http://sumo.dlr.de/xsd/duarouterConfiguration.xsd">

    <input>
        <net-file value="pasto.net.xml.gz"/>
        <route-files value="pasto.pedestrian.trips.xml"/>
    </input>

    <output>
        <output-file value="pasto.pedestrian.trips.xml.tmp"/>
        <alternatives-output value="NUL"/>
        <write-trips value="true"/>
    </output>

    <processing>
        <remove-loops value="true"/>
        <routing-threads value="3"/>
    </processing>

    <time>
        <begin value="0.0"/>
        <end value="60.0"/>
    </time>

    <report>
        <verbose value="true"/>
        <ignore-errors value="true"/>
        <no-step-log value="true"/>
    </report>

</configuration>
-->

<routes xmlns:xsi="http://www.w3.org/2001/XMLSchema-instance" xsi:noNamespaceSchemaLocation="http://sumo.dlr.de/xsd/routes_file.xsd">
    <vType id="ped_pedestrian" vClass="pedestrian"/>
    <person id="ped0" type="ped_pedestrian" depart="0.00">
        <personTrip from="1279771454" to="218177073" walkFactor="0.75"/>
    </person>
    <person id="ped1" type="ped_pedestrian" depart="0.01">
        <personTrip from="1279772133" to="1279771716" walkFactor="0.75"/>
    </person>
    <person id="ped2" type="ped_pedestrian" depart="0.03">
        <personTrip from="1279770692" to="217104326" walkFactor="0.75"/>
    </person>
    <person id="ped3" type="ped_pedestrian" depart="0.04">
        <personTrip from="217603012" to="218025314" walkFactor="0.75"/>
    </person>
    <person id="ped4" type="ped_pedestrian" depart="0.06">
        <personTrip from="1279771997" to="1279772005" walkFactor="0.75"/>
    </person>
    <person id="ped5" type="ped_pedestrian" depart="0.07">
        <personTrip from="218125982" to="1279771256" walkFactor="0.75"/>
    </person>
    <person id="ped6" type="ped_pedestrian" depart="0.09">
        <personTrip from="1279771515" to="1279771546" walkFactor="0.75"/>
    </person>
    <person id="ped7" type="ped_pedestrian" depart="0.10">
        <personTrip from="218114993" to="218117795" walkFactor="0.75"/>
    </person>
    <person id="ped8" type="ped_pedestrian" depart="0.12">
        <personTrip from="1279770820" to="1279770737" walkFactor="0.75"/>
    </person>
    <person id="ped9" type="ped_pedestrian" depart="0.14">
        <personTrip from="1279771474" to="1279772003" walkFactor="0.75"/>
    </person>
    <person id="ped10" type="ped_pedestrian" depart="0.15">
        <personTrip from="1279771883" to="1279772123" walkFactor="0.75"/>
    </person>
    <person id="ped11" type="ped_pedestrian" depart="0.17">
        <personTrip from="1279771637" to="1279771696" walkFactor="0.75"/>
    </person>
    <person id="ped12" type="ped_pedestrian" depart="0.18">
        <personTrip from="1279771370" to="1279771303" walkFactor="0.75"/>
    </person>
    <person id="ped13" type="ped_pedestrian" depart="0.20">
        <personTrip from="1279771570" to="1279770422" walkFactor="0.75"/>
    </person>
    <person id="ped14" type="ped_pedestrian" depart="0.21">
        <personTrip from="1279771807" to="1279771832" walkFactor="0.75"/>
    </person>
    <person id="ped15" type="ped_pedestrian" depart="0.23">
        <personTrip from="1279770771" to="1279770991" walkFactor="0.75"/>
    </person>
    <person id="ped16" type="ped_pedestrian" depart="0.24">
        <personTrip from="1279770965" to="1279770908" walkFactor="0.75"/>
    </person>
    <person id="ped17" type="ped_pedestrian" depart="0.26">
        <personTrip from="1279770936" to="1279770560" walkFactor="0.75"/>
    </person>
    <person id="ped18" type="ped_pedestrian" depart="0.27">
        <personTrip from="1279771580" to="1279771580" walkFactor="0.75"/>
    </person>
    <person id="ped19" type="ped_pedestrian" depart="0.29">
        <personTrip from="1279770840" to="1268416855" walkFactor="0.75"/>
    </person>
    <person id="ped20" type="ped_pedestrian" depart="0.30">
        <personTrip from="1279770955" to="1279770913" walkFactor="0.75"/>
    </person>
    <person id="ped21" type="ped_pedestrian" depart="0.32">
        <personTrip from="1279771933" to="1279771442" walkFactor="0.75"/>
    </person>
    <person id="ped22" type="ped_pedestrian" depart="0.33">
        <personTrip from="1279770374" to="1279770374" walkFactor="0.75"/>
    </person>
    <person id="ped23" type="ped_pedestrian" depart="0.35">
        <personTrip from="1279770950" to="1279770918" walkFactor="0.75"/>
    </person>
    <person id="ped24" type="ped_pedestrian" depart="0.36">
        <personTrip from="1279771257" to="218125978" walkFactor="0.75"/>
    </person>
    <person id="ped25" type="ped_pedestrian" depart="0.38">
        <personTrip from="1279771208" to="1279771167" walkFactor="0.75"/>
    </person>
    <person id="ped26" type="ped_pedestrian" depart="0.39">
        <personTrip from="1279770970" to="1279770949" walkFactor="0.75"/>
    </person>
    <person id="ped27" type="ped_pedestrian" depart="0.41">
        <personTrip from="1279771619" to="1279771694" walkFactor="0.75"/>
    </person>
    <person id="ped28" type="ped_pedestrian" depart="0.42">
        <personTrip from="1279770824" to="1279770693" walkFactor="0.75"/>
    </person>
    <person id="ped29" type="ped_pedestrian" depart="0.44">
        <personTrip from="1279770968" to="1279771018" walkFactor="0.75"/>
    </person>
    <person id="ped30" type="ped_pedestrian" depart="0.45">
        <personTrip from="1279771095" to="1279771105" walkFactor="0.75"/>
    </person>
    <person id="ped31" type="ped_pedestrian" depart="0.47">
        <personTrip from="218119448" to="1279771207" walkFactor="0.75"/>
    </person>
    <person id="ped32" type="ped_pedestrian" depart="0.48">
        <personTrip from="1266552019" to="1279771766" walkFactor="0.75"/>
    </person>
    <person id="ped33" type="ped_pedestrian" depart="0.50">
        <personTrip from="1279771569" to="1279771565" walkFactor="0.75"/>
    </person>
    <person id="ped34" type="ped_pedestrian" depart="0.51">
        <personTrip from="1279771172" to="1279771088" walkFactor="0.75"/>
    </person>
    <person id="ped35" type="ped_pedestrian" depart="0.53">
        <personTrip from="1279770973" to="1279770995" walkFactor="0.75"/>
    </person>
    <person id="ped36" type="ped_pedestrian" depart="0.54">
        <personTrip from="1279770702" to="1279770691" walkFactor="0.75"/>
    </person>
    <person id="ped37" type="ped_pedestrian" depart="0.56">
        <personTrip from="1279770697" to="1279770813" walkFactor="0.75"/>
    </person>
    <person id="ped38" type="ped_pedestrian" depart="0.57">
        <personTrip from="1279771515" to="1279771504" walkFactor="0.75"/>
    </person>
    <person id="ped39" type="ped_pedestrian" depart="0.59">
        <personTrip from="1279771820" to="1279771819" walkFactor="0.75"/>
    </person>
    <person id="ped40" type="ped_pedestrian" depart="0.60">
        <personTrip from="1279770479" to="218117796" walkFactor="0.75"/>
    </person>
    <person id="ped41" type="ped_pedestrian" depart="0.62">
        <personTrip from="1279771049" to="1279771039" walkFactor="0.75"/>
    </person>
    <person id="ped42" type="ped_pedestrian" depart="0.63">
        <personTrip from="218119455" to="218118904" walkFactor="0.75"/>
    </person>
    <person id="ped43" type="ped_pedestrian" depart="0.65">
        <personTrip from="218834158" to="1279772140" walkFactor="0.75"/>
    </person>
    <person id="ped44" type="ped_pedestrian" depart="0.66">
        <personTrip from="218177073" to="218554704" walkFactor="0.75"/>
    </person>
    <person id="ped45" type="ped_pedestrian" depart="0.68">
        <personTrip from="218604146" to="1279771694" walkFactor="0.75"/>
    </person>
    <person id="ped46" type="ped_pedestrian" depart="0.69">
        <personTrip from="1279771938" to="1279772006" walkFactor="0.75"/>
    </person>
    <person id="ped47" type="ped_pedestrian" depart="0.71">
        <personTrip from="1279770713" to="1279770814" walkFactor="0.75"/>
    </person>
    <person id="ped48" type="ped_pedestrian" depart="0.72">
        <personTrip from="1279770836" to="1279770853" walkFactor="0.75"/>
    </person>
    <person id="ped49" type="ped_pedestrian" depart="0.75">
        <personTrip from="218025330" to="1279770968" walkFactor="0.75"/>
    </person>
    <person id="ped50" type="ped_pedestrian" depart="0.77">
        <personTrip from="1279772129" to="1279772158" walkFactor="0.75"/>
    </person>
    <person id="ped51" type="ped_pedestrian" depart="0.78">
        <personTrip from="1279771372" to="218126711" walkFactor="0.75"/>
    </person>
    <person id="ped52" type="ped_pedestrian" depart="0.80">
        <personTrip from="1279771795" to="-217104359" walkFactor="0.75"/>
    </person>
    <person id="ped53" type="ped_pedestrian" depart="0.81">
        <personTrip from="1279772021" to="1279770494" walkFactor="0.75"/>
    </person>
    <person id="ped54" type="ped_pedestrian" depart="0.83">
        <personTrip from="1279770427" to="1279771664" walkFactor="0.75"/>
    </person>
    <person id="ped55" type="ped_pedestrian" depart="0.84">
        <personTrip from="1279771608" to="1279771462" walkFactor="0.75"/>
    </person>
    <person id="ped56" type="ped_pedestrian" depart="0.86">
        <personTrip from="1279771394" to="1279771316" walkFactor="0.75"/>
    </person>
    <person id="ped57" type="ped_pedestrian" depart="0.87">
        <personTrip from="1279771778" to="1279771809" walkFactor="0.75"/>
    </person>
    <person id="ped58" type="ped_pedestrian" depart="0.89">
        <personTrip from="218603039" to="1279771826" walkFactor="0.75"/>
    </person>
    <person id="ped59" type="ped_pedestrian" depart="0.90">
        <personTrip from="1279770857" to="1268416860" walkFactor="0.75"/>
    </person>
    <person id="ped60" type="ped_pedestrian" depart="0.92">
        <personTrip from="1279771338" to="1279771466" walkFactor="0.75"/>
    </person>
    <person id="ped61" type="ped_pedestrian" depart="0.93">
        <personTrip from="218147745" to="1279771403" walkFactor="0.75"/>
    </person>
    <person id="ped62" type="ped_pedestrian" depart="0.95">
        <personTrip from="1279770781" to="1279770769" walkFactor="0.75"/>
    </person>
    <person id="ped63" type="ped_pedestrian" depart="0.96">
        <personTrip from="1279770925" to="1279770931" walkFactor="0.75"/>
    </person>
    <person id="ped64" type="ped_pedestrian" depart="0.98">
        <personTrip from="1279771529" to="1279771538" walkFactor="0.75"/>
    </person>
    <person id="ped65" type="ped_pedestrian" depart="0.99">
        <personTrip from="218148124" to="1279771468" walkFactor="0.75"/>
    </person>
    <person id="ped66" type="ped_pedestrian" depart="1.01">
        <personTrip from="1279771236" to="1279771078" walkFactor="0.75"/>
    </person>
    <person id="ped67" type="ped_pedestrian" depart="1.02">
        <personTrip from="1279772119" to="1279772147" walkFactor="0.75"/>
    </person>
    <person id="ped68" type="ped_pedestrian" depart="1.04">
        <personTrip from="1279770553" to="1279770875" walkFactor="0.75"/>
    </person>
    <person id="ped69" type="ped_pedestrian" depart="1.05">
        <personTrip from="218176917" to="1279770426" walkFactor="0.75"/>
    </person>
    <person id="ped70" type="ped_pedestrian" depart="1.07">
        <personTrip from="1279770743" to="217452078" walkFactor="0.75"/>
    </person>
    <person id="ped71" type="ped_pedestrian" depart="1.08">
        <personTrip from="1279772017" to="1279772023" walkFactor="0.75"/>
    </person>
    <person id="ped73" type="ped_pedestrian" depart="1.11">
        <personTrip from="1279772170" to="1279770663" walkFactor="0.75"/>
    </person>
    <person id="ped74" type="ped_pedestrian" depart="1.12">
        <personTrip from="1279771689" to="1279771859" walkFactor="0.75"/>
    </person>
    <person id="ped75" type="ped_pedestrian" depart="1.14">
        <personTrip from="1279771788" to="1279771833" walkFactor="0.75"/>
    </person>
    <person id="ped76" type="ped_pedestrian" depart="1.15">
        <personTrip from="218025300" to="218025323" walkFactor="0.75"/>
    </person>
    <person id="ped77" type="ped_pedestrian" depart="1.17">
        <personTrip from="1279770612" to="218602419" walkFactor="0.75"/>
    </person>
    <person id="ped78" type="ped_pedestrian" depart="1.18">
        <personTrip from="1279771151" to="218122150" walkFactor="0.75"/>
    </person>
    <person id="ped79" type="ped_pedestrian" depart="1.20">
        <personTrip from="218175284" to="1279771257" walkFactor="0.75"/>
    </person>
    <person id="ped80" type="ped_pedestrian" depart="1.21">
        <personTrip from="1279771824" to="1279771843" walkFactor="0.75"/>
    </person>
    <person id="ped81" type="ped_pedestrian" depart="1.23">
        <personTrip from="218148123" to="1279771323" walkFactor="0.75"/>
    </person>
    <person id="ped82" type="ped_pedestrian" depart="1.24">
        <personTrip from="1279771757" to="1279771774" walkFactor="0.75"/>
    </person>
    <person id="ped83" type="ped_pedestrian" depart="1.26">
        <personTrip from="1279771047" to="217452065" walkFactor="0.75"/>
    </person>
    <person id="ped84" type="ped_pedestrian" depart="1.27">
        <personTrip from="1279770745" to="1279770910" walkFactor="0.75"/>
    </person>
    <person id="ped85" type="ped_pedestrian" depart="1.29">
        <personTrip from="1279771829" to="1279771832" walkFactor="0.75"/>
    </person>
    <person id="ped86" type="ped_pedestrian" depart="1.30">
        <personTrip from="1279771470" to="1279771364" walkFactor="0.75"/>
    </person>
    <person id="ped87" type="ped_pedestrian" depart="1.32">
        <personTrip from="1279771860" to="218554712" walkFactor="0.75"/>
    </person>
    <person id="ped88" type="ped_pedestrian" depart="1.33">
        <personTrip from="1279771319" to="1279771363" walkFactor="0.75"/>
    </person>
    <person id="ped89" type="ped_pedestrian" depart="1.35">
        <personTrip from="1279771725" to="1279772085" walkFactor="0.75"/>
    </person>
    <person id="ped90" type="ped_pedestrian" depart="1.36">
        <personTrip from="1279771479" to="1279771793" walkFactor="0.75"/>
    </person>
    <person id="ped91" type="ped_pedestrian" depart="1.38">
        <personTrip from="1279770918" to="218025321" walkFactor="0.75"/>
    </person>
    <person id="ped92" type="ped_pedestrian" depart="1.39">
        <personTrip from="1279770536" to="1279770426" walkFactor="0.75"/>
    </person>
    <person id="ped93" type="ped_pedestrian" depart="1.41">
        <personTrip from="1279771709" to="218554720" walkFactor="0.75"/>
    </person>
    <person id="ped94" type="ped_pedestrian" depart="1.42">
        <personTrip from="218126888" to="1279771340" walkFactor="0.75"/>
    </person>
    <person id="ped95" type="ped_pedestrian" depart="1.44">
        <personTrip from="1279770900" to="1279770568" walkFactor="0.75"/>
    </person>
    <person id="ped96" type="ped_pedestrian" depart="1.45">
        <personTrip from="1279771329" to="218119450" walkFactor="0.75"/>
    </person>
    <person id="ped97" type="ped_pedestrian" depart="1.47">
        <personTrip from="1279771893" to="1279771984" walkFactor="0.75"/>
    </person>
    <person id="ped98" type="ped_pedestrian" depart="1.48">
        <personTrip from="217103500" to="1279770738" walkFactor="0.75"/>
    </person>
    <person id="ped99" type="ped_pedestrian" depart="1.50">
        <personTrip from="1279770951" to="1279771020" walkFactor="0.75"/>
    </person>
    <person id="ped100" type="ped_pedestrian" depart="1.51">
        <personTrip from="1279771090" to="218118878" walkFactor="0.75"/>
    </person>
    <person id="ped101" type="ped_pedestrian" depart="1.53">
        <personTrip from="218176906" to="1279771614" walkFactor="0.75"/>
    </person>
    <person id="ped102" type="ped_pedestrian" depart="1.54">
        <personTrip from="218175283" to="218175285" walkFactor="0.75"/>
    </person>
    <person id="ped103" type="ped_pedestrian" depart="1.56">
        <personTrip from="218831299" to="218831299" walkFactor="0.75"/>
    </person>
    <person id="ped104" type="ped_pedestrian" depart="1.57">
        <personTrip from="218118901" to="218118902" walkFactor="0.75"/>
    </person>
    <person id="ped105" type="ped_pedestrian" depart="1.59">
        <personTrip from="1279771275" to="1279771614" walkFactor="0.75"/>
    </person>
    <person id="ped106" type="ped_pedestrian" depart="1.60">
        <personTrip from="1279771412" to="1279772005" walkFactor="0.75"/>
    </person>
    <person id="ped107" type="ped_pedestrian" depart="1.62">
        <personTrip from="1279770694" to="1279770739" walkFactor="0.75"/>
    </person>
    <person id="ped109" type="ped_pedestrian" depart="1.65">
        <personTrip from="1279771512" to="1279771505" walkFactor="0.75"/>
    </person>
    <person id="ped111" type="ped_pedestrian" depart="1.68">
        <personTrip from="1279771312" to="218122176" walkFactor="0.75"/>
    </person>
    <person id="ped112" type="ped_pedestrian" depart="1.69">
        <personTrip from="1279770519" to="1279771701" walkFactor="0.75"/>
    </person>
    <person id="ped113" type="ped_pedestrian" depart="1.71">
        <personTrip from="1279771663" to="1279771661" walkFactor="0.75"/>
    </person>
    <person id="ped114" type="ped_pedestrian" depart="1.72">
        <personTrip from="1279770428" to="1279771556" walkFactor="0.75"/>
    </person>
    <person id="ped115" type="ped_pedestrian" depart="1.74">
        <personTrip from="1279771378" to="1279771473" walkFactor="0.75"/>
    </person>
    <person id="ped116" type="ped_pedestrian" depart="1.75">
        <personTrip from="1279771882" to="1279771846" walkFactor="0.75"/>
    </person>
    <person id="ped117" type="ped_pedestrian" depart="1.77">
        <personTrip from="1279770710" to="1279770706" walkFactor="0.75"/>
    </person>
    <person id="ped118" type="ped_pedestrian" depart="1.78">
        <personTrip from="218118878" to="218117797" walkFactor="0.75"/>
    </person>
    <person id="ped119" type="ped_pedestrian" depart="1.80">
        <personTrip from="1279770502" to="1279770417" walkFactor="0.75"/>
    </person>
    <person id="ped120" type="ped_pedestrian" depart="1.81">
        <personTrip from="1279771795" to="1279770613" walkFactor="0.75"/>
    </person>
    <person id="ped121" type="ped_pedestrian" depart="1.83">
        <personTrip from="1279771007" to="218114986" walkFactor="0.75"/>
    </person>
    <person id="ped122" type="ped_pedestrian" depart="1.84">
        <personTrip from="1279771314" to="1279771341" walkFactor="0.75"/>
    </person>
    <person id="ped123" type="ped_pedestrian" depart="1.86">
        <personTrip from="1279771221" to="218122177" walkFactor="0.75"/>
    </person>
    <person id="ped124" type="ped_pedestrian" depart="1.87">
        <personTrip from="1279771092" to="1279770958" walkFactor="0.75"/>
    </person>
    <person id="ped125" type="ped_pedestrian" depart="1.89">
        <personTrip from="1279771022" to="1279770949" walkFactor="0.75"/>
    </person>
    <person id="ped126" type="ped_pedestrian" depart="1.90">
        <personTrip from="1279771994" to="1265562497" walkFactor="0.75"/>
    </person>
    <person id="ped127" type="ped_pedestrian" depart="1.92">
        <personTrip from="1279771345" to="1279771345" walkFactor="0.75"/>
    </person>
    <person id="ped128" type="ped_pedestrian" depart="1.93">
        <personTrip from="1279770413" to="1279770412" walkFactor="0.75"/>
    </person>
    <person id="ped129" type="ped_pedestrian" depart="1.95">
        <personTrip from="1279772082" to="1279772077" walkFactor="0.75"/>
    </person>
    <person id="ped130" type="ped_pedestrian" depart="1.96">
        <personTrip from="1279771450" to="1279770479" walkFactor="0.75"/>
    </person>
    <person id="ped131" type="ped_pedestrian" depart="1.98">
        <personTrip from="217603012" to="1279770461" walkFactor="0.75"/>
    </person>
    <person id="ped132" type="ped_pedestrian" depart="1.99">
        <personTrip from="1279770711" to="1279770583" walkFactor="0.75"/>
    </person>
    <person id="ped133" type="ped_pedestrian" depart="2.01">
        <personTrip from="1279770546" to="1279770688" walkFactor="0.75"/>
    </person>
    <person id="ped134" type="ped_pedestrian" depart="2.02">
        <personTrip from="1279770778" to="1279770971" walkFactor="0.75"/>
    </person>
    <person id="ped135" type="ped_pedestrian" depart="2.04">
        <personTrip from="1279772146" to="1279772159" walkFactor="0.75"/>
    </person>
    <person id="ped136" type="ped_pedestrian" depart="2.05">
        <personTrip from="1279771531" to="218176897" walkFactor="0.75"/>
    </person>
    <person id="ped137" type="ped_pedestrian" depart="2.07">
        <personTrip from="217603003" to="1279771039" walkFactor="0.75"/>
    </person>
    <person id="ped138" type="ped_pedestrian" depart="2.08">
        <personTrip from="1279770750" to="1279770752" walkFactor="0.75"/>
    </person>
    <person id="ped139" type="ped_pedestrian" depart="2.10">
        <personTrip from="218554712" to="1279771855" walkFactor="0.75"/>
    </person>
    <person id="ped140" type="ped_pedestrian" depart="2.11">
        <personTrip from="218831295" to="1279772066" walkFactor="0.75"/>
    </person>
    <person id="ped141" type="ped_pedestrian" depart="2.13">
        <personTrip from="218025293" to="1279770843" walkFactor="0.75"/>
    </person>
    <person id="ped142" type="ped_pedestrian" depart="2.14">
        <personTrip from="1279771573" to="1279771606" walkFactor="0.75"/>
    </person>
    <person id="ped143" type="ped_pedestrian" depart="2.16">
        <personTrip from="218148123" to="1279771506" walkFactor="0.75"/>
    </person>
    <person id="ped144" type="ped_pedestrian" depart="2.17">
        <personTrip from="1279771899" to="1279771975" walkFactor="0.75"/>
    </person>
    <person id="ped145" type="ped_pedestrian" depart="2.19">
        <personTrip from="1279770908" to="1279770597" walkFactor="0.75"/>
    </person>
    <person id="ped146" type="ped_pedestrian" depart="2.20">
        <personTrip from="1279771943" to="1279771888" walkFactor="0.75"/>
    </person>
    <person id="ped147" type="ped_pedestrian" depart="2.22">
        <personTrip from="217332653" to="1279770586" walkFactor="0.75"/>
    </person>
    <person id="ped149" type="ped_pedestrian" depart="2.25">
        <personTrip from="1279771127" to="1279771135" walkFactor="0.75"/>
    </person>
    <person id="ped150" type="ped_pedestrian" depart="2.26">
        <personTrip from="218176912" to="1279771548" walkFactor="0.75"/>
    </person>
    <person id="ped151" type="ped_pedestrian" depart="2.28">
        <personTrip from="1279770941" to="1279770942" walkFactor="0.75"/>
    </person>
    <person id="ped152" type="ped_pedestrian" depart="2.29">
        <personTrip from="1279771821" to="1279771836" walkFactor="0.75"/>
    </person>
    <person id="ped153" type="ped_pedestrian" depart="2.31">
        <personTrip from="1279770682" to="1279770833" walkFactor="0.75"/>
    </person>
    <person id="ped154" type="ped_pedestrian" depart="2.32">
        <personTrip from="1279770600" to="1279770773" walkFactor="0.75"/>
    </person>
    <person id="ped155" type="ped_pedestrian" depart="2.34">
        <personTrip from="1279771598" to="1279771613" walkFactor="0.75"/>
    </person>
    <person id="ped156" type="ped_pedestrian" depart="2.35">
        <personTrip from="1279771338" to="1279771287" walkFactor="0.75"/>
    </person>
    <person id="ped157" type="ped_pedestrian" depart="2.37">
        <personTrip from="1279771129" to="218118879" walkFactor="0.75"/>
    </person>
    <person id="ped158" type="ped_pedestrian" depart="2.38">
        <personTrip from="218114987" to="1279771028" walkFactor="0.75"/>
    </person>
    <person id="ped159" type="ped_pedestrian" depart="2.40">
        <personTrip from="217452072" to="1279770905" walkFactor="0.75"/>
    </person>
    <person id="ped160" type="ped_pedestrian" depart="2.41">
        <personTrip from="1279771845" to="218603048" walkFactor="0.75"/>
    </person>
    <person id="ped161" type="ped_pedestrian" depart="2.43">
        <personTrip from="218112247" to="1279770992" walkFactor="0.75"/>
    </person>
    <person id="ped162" type="ped_pedestrian" depart="2.44">
        <personTrip from="1279770539" to="1279771836" walkFactor="0.75"/>
    </person>
    <person id="ped163" type="ped_pedestrian" depart="2.46">
        <personTrip from="1279771676" to="1279770530" walkFactor="0.75"/>
    </person>
    <person id="ped164" type="ped_pedestrian" depart="2.47">
        <personTrip from="1279771239" to="218118901" walkFactor="0.75"/>
    </person>
    <person id="ped165" type="ped_pedestrian" depart="2.49">
        <personTrip from="1279771605" to="1279771076" walkFactor="0.75"/>
    </person>
    <person id="ped166" type="ped_pedestrian" depart="2.50">
        <personTrip from="1279771833" to="1268416844" walkFactor="0.75"/>
    </person>
    <person id="ped167" type="ped_pedestrian" depart="2.52">
        <personTrip from="1279771085" to="1279770912" walkFactor="0.75"/>
    </person>
    <person id="ped168" type="ped_pedestrian" depart="2.53">
        <personTrip from="1279771443" to="1279771783" walkFactor="0.75"/>
    </person>
    <person id="ped169" type="ped_pedestrian" depart="2.55">
        <personTrip from="1279771863" to="1279771824" walkFactor="0.75"/>
    </person>
    <person id="ped170" type="ped_pedestrian" depart="2.56">
        <personTrip from="1279771443" to="1279770646" walkFactor="0.75"/>
    </person>
    <person id="ped171" type="ped_pedestrian" depart="2.58">
        <personTrip from="1279770636" to="1279772065" walkFactor="0.75"/>
    </person>
    <person id="ped172" type="ped_pedestrian" depart="2.59">
        <personTrip from="1279770474" to="1279770775" walkFactor="0.75"/>
    </person>
    <person id="ped173" type="ped_pedestrian" depart="2.61">
        <personTrip from="218604147" to="1279771852" walkFactor="0.75"/>
    </person>
    <person id="ped174" type="ped_pedestrian" depart="2.62">
        <personTrip from="1279770864" to="217452080" walkFactor="0.75"/>
    </person>
    <person id="ped175" type="ped_pedestrian" depart="2.64">
        <personTrip from="1279771602" to="1279771579" walkFactor="0.75"/>
    </person>
    <person id="ped176" type="ped_pedestrian" depart="2.65">
        <personTrip from="1279770522" to="1279770521" walkFactor="0.75"/>
    </person>
    <person id="ped177" type="ped_pedestrian" depart="2.67">
        <personTrip from="1279772045" to="1279772053" walkFactor="0.75"/>
    </person>
    <person id="ped178" type="ped_pedestrian" depart="2.69">
        <personTrip from="1268423541" to="1279770909" walkFactor="0.75"/>
    </person>
    <person id="ped179" type="ped_pedestrian" depart="2.70">
        <personTrip from="1279771521" to="1279770536" walkFactor="0.75"/>
    </person>
    <person id="ped181" type="ped_pedestrian" depart="2.73">
        <personTrip from="1279771799" to="218603019" walkFactor="0.75"/>
    </person>
    <person id="ped182" type="ped_pedestrian" depart="2.75">
        <personTrip from="1279770463" to="1279770437" walkFactor="0.75"/>
    </person>
    <person id="ped184" type="ped_pedestrian" depart="2.78">
        <personTrip from="218603050" to="1279771867" walkFactor="0.75"/>
    </person>
    <person id="ped185" type="ped_pedestrian" depart="2.79">
        <personTrip from="1279771156" to="1279771091" walkFactor="0.75"/>
    </person>
    <person id="ped186" type="ped_pedestrian" depart="2.81">
        <personTrip from="1279770795" to="1279770677" walkFactor="0.75"/>
    </person>
    <person id="ped187" type="ped_pedestrian" depart="2.82">
        <personTrip from="1279771892" to="1279771912" walkFactor="0.75"/>
    </person>
    <person id="ped188" type="ped_pedestrian" depart="2.84">
        <personTrip from="218175275" to="1279771370" walkFactor="0.75"/>
    </person>
    <person id="ped189" type="ped_pedestrian" depart="2.85">
        <personTrip from="1279771590" to="1279771561" walkFactor="0.75"/>
    </person>
    <person id="ped190" type="ped_pedestrian" depart="2.87">
        <personTrip from="1279770827" to="1279770723" walkFactor="0.75"/>
    </person>
    <person id="ped191" type="ped_pedestrian" depart="2.88">
        <personTrip from="1279770558" to="1279770877" walkFactor="0.75"/>
    </person>
    <person id="ped192" type="ped_pedestrian" depart="2.90">
        <personTrip from="1279771351" to="1279771346" walkFactor="0.75"/>
    </person>
    <person id="ped193" type="ped_pedestrian" depart="2.91">
        <personTrip from="1279771474" to="1279770521" walkFactor="0.75"/>
    </person>
    <person id="ped194" type="ped_pedestrian" depart="2.93">
        <personTrip from="1279771489" to="218175277" walkFactor="0.75"/>
    </person>
    <person id="ped195" type="ped_pedestrian" depart="2.94">
        <personTrip from="1279770700" to="1279770715" walkFactor="0.75"/>